CHEMBL404879
  SciTegic08162514313D

 47 50  0  0  1  0            999 V2000
    0.6910   -2.6560    0.7540 Cl  0  0
    0.3590   -1.1170    0.0310 C   0  0
    1.4320   -0.3070   -0.4400 C   0  0
   -0.9880   -0.6470   -0.0980 C   0  0
    2.8200   -0.7360   -0.3420 C   0  0
    1.1760    0.9530   -1.0200 C   0  0
   -1.2440    0.6410   -0.6820 C   0  0
   -2.1290   -1.4900    0.3790 C   0  0  2  0  0  0
    3.7250   -0.1020    0.5470 C   0  0
    3.2870   -1.8090   -1.1450 C   0  0
   -0.1460    1.4300   -1.1410 C   0  0
   -2.5180    1.1190   -0.8030 N   0  0
   -3.4490   -1.1250   -0.3160 C   0  0
   -2.2520   -1.4140    1.9060 C   0  0
    3.5670    0.9530    1.4390 N   0  0
    5.0350   -0.5060    0.6410 C   0  0
    4.6410   -2.2270   -1.0490 C   0  0
   -0.3380    2.7600   -1.7540 C   0  0
   -3.7150    0.3910   -0.3110 C   0  0
    4.8170    1.1620    2.0680 C   0  0
    5.5330   -1.5780   -0.1540 C   0  0
    5.7270    0.2280    1.5470 C   0  0
   -4.0410    0.8890    1.1010 C   0  0
   -4.9040    0.7030   -1.2270 C   0  0
    7.1680   -2.1090   -0.0660 Cl  0  0
    1.9920    1.5660   -1.3750 H   0  0
   -1.9450   -2.5330    0.1130 H   0  0
    2.6250   -2.3160   -1.8320 H   0  0
   -2.6860    2.0060   -1.2340 H   0  0
   -3.4100   -1.4790   -1.3500 H   0  0
   -4.2810   -1.6600    0.1440 H   0  0
   -1.6970   -2.2250    2.3790 H   0  0
   -1.8730   -0.4610    2.2750 H   0  0
   -3.2950   -1.5000    2.2130 H   0  0
    2.7330    1.4670    1.6090 H   0  0
    4.9830   -3.0430   -1.6680 H   0  0
   -0.8570    3.4770   -1.1170 H   0  0
   -0.9120    2.6540   -2.6760 H   0  0
    0.6310    3.1840   -2.0140 H   0  0
    4.9960    1.9220    2.8180 H   0  0
    6.7680    0.1330    1.8260 H   0  0
   -3.1460    0.9920    1.7150 H   0  0
   -4.7130    0.1950    1.6090 H   0  0
   -4.5330    1.8590    1.0640 H   0  0
   -4.7190    0.3910   -2.2540 H   0  0
   -5.1110    1.7730   -1.2340 H   0  0
   -5.8030    0.1930   -0.8790 H   0  0
  1  2  1  0
  2  3  2  0
  2  4  1  0
  3  5  1  0
  3  6  1  0
  4  7  2  0
  4  8  1  0
  5  9  2  0
  5 10  1  0
  6 11  2  0
  7 12  1  0
  8 13  1  0
  8 14  1  0
  9 15  1  0
  9 16  1  0
 10 17  2  0
 11 18  1  0
 12 19  1  0
 15 20  1  0
 16 21  2  0
 16 22  1  0
 19 23  1  0
 19 24  1  0
 21 25  1  0
  7 11  1  0
 13 19  1  0
 17 21  1  0
 20 22  2  0
  6 26  1  0
  8 27  1  0
 10 28  1  0
 12 29  1  0
 13 30  1  0
 13 31  1  0
 14 32  1  0
 14 33  1  0
 14 34  1  0
 15 35  1  0
 17 36  1  0
 18 37  1  0
 18 38  1  0
 18 39  1  0
 20 40  1  0
 22 41  1  0
 23 42  1  0
 23 43  1  0
 23 44  1  0
 24 45  1  0
 24 46  1  0
 24 47  1  0
M  END
> <Name>
CHEMBL404879

> <IC50 nM>
1000

> <Molecule_ChEMBL_ID>
CHEMBL404879

> <Smiles>
Cc1cc(-c2ccc(Cl)c3cc[nH]c23)c(Cl)c2c1NC(C)(C)CC2C

$$$$
CHEMBL304877
  SciTegic08162514313D

 46 49  0  0  1  0            999 V2000
   -0.2290    3.1700   -4.6780 Cl  0  0
   -0.1760    3.5140   -2.9900 C   0  0
   -0.6430    4.7380   -2.4490 C   0  0
    0.3550    2.5310   -2.1310 C   0  0
   -1.3030    5.9900   -3.4340 Cl  0  0
   -0.5720    4.9550   -1.0610 C   0  0
    0.4200    2.7580   -0.7460 C   0  0
   -0.0450    3.9690   -0.2110 C   0  0
    0.9840    1.7110    0.1560 C   0  0  2  0  0  0
    2.2930    1.3930   -0.3440 O   0  0
    0.0980    0.5120    0.2990 C   0  0
    2.9100    0.2400   -0.0220 C   0  0
    0.6840   -0.7870    0.3980 C   0  0
   -1.3180    0.6500    0.3590 C   0  0
    2.1660   -0.9020    0.4000 C   0  0
    4.3180    0.1860   -0.1230 C   0  0
   -0.1760   -1.9220    0.4860 C   0  0
   -2.1600   -0.4810    0.4780 C   0  0
    2.8850   -2.0780    0.7910 C   0  0
    5.0120   -0.9900    0.2300 C   0  0
   -1.5780   -1.7660    0.5330 C   0  0
   -3.4920   -0.3360    0.5350 N   0  0
    2.2810   -3.1720    1.2710 O   0  0
    4.2970   -2.1130    0.6930 C   0  0
   -4.4410   -1.6390    0.6930 S   0  0
    2.9810   -4.4060    1.2010 C   0  0
   -4.2380   -2.4710   -0.4790 O   0  0
   -4.0760   -2.2970    1.9360 O   0  0
   -6.1640   -1.1660    0.7750 C   0  0
    0.7150    1.5940   -2.5290 H   0  0
   -0.9260    5.8810   -0.6290 H   0  0
    0.0040    4.1480    0.8530 H   0  0
    1.1110    2.1480    1.1480 H   0  0
   -1.7620    1.6370    0.3160 H   0  0
    4.8690    1.0490   -0.4690 H   0  0
    0.1890   -2.9340    0.5160 H   0  0
    6.0880   -1.0290    0.1500 H   0  0
   -2.1970   -2.6490    0.6130 H   0  0
   -3.8980    0.5760    0.4780 H   0  0
    4.8340   -3.0080    0.9770 H   0  0
    2.2870   -5.2070    1.4570 H   0  0
    3.4530   -4.4750    0.2210 H   0  0
    3.7700   -4.3950    1.9510 H   0  0
   -6.8540   -2.0040    0.8830 H   0  0
   -6.4380   -0.6250   -0.1310 H   0  0
   -6.3180   -0.4980    1.6230 H   0  0
  1  2  1  0
  2  3  2  0
  2  4  1  0
  3  5  1  0
  3  6  1  0
  4  7  2  0
  6  8  2  0
  9  7  1  0
  9 10  1  0
  9 11  1  0
 10 12  1  0
 11 13  2  0
 11 14  1  0
 12 15  2  0
 12 16  1  0
 13 17  1  0
 14 18  2  0
 15 19  1  0
 16 20  2  0
 17 21  2  0
 18 22  1  0
 19 23  1  0
 19 24  2  0
 22 25  1  0
 23 26  1  0
 25 27  2  0
 25 28  2  0
 25 29  1  0
  7  8  1  0
 13 15  1  0
 18 21  1  0
 20 24  1  0
  4 30  1  0
  6 31  1  0
  8 32  1  0
  9 33  1  0
 14 34  1  0
 16 35  1  0
 17 36  1  0
 20 37  1  0
 21 38  1  0
 22 39  1  0
 24 40  1  0
 26 41  1  0
 26 42  1  0
 26 43  1  0
 29 44  1  0
 29 45  1  0
 29 46  1  0
M  END
> <Name>
CHEMBL304877

> <IC50 nM>
3

> <Molecule_ChEMBL_ID>
CHEMBL304877

> <Smiles>
COc1cccc2c1-c1ccc(NS(C)(=O)=O)cc1C(c1ccc(Cl)c(Cl)c1)O2

$$$$
CHEMBL64095
  SciTegic08162514313D

 57 61  0  0  1  0            999 V2000
   -2.6680    5.2360   -1.7090 S   0  0
   -2.3400    5.4010   -0.3050 O   0  0
   -1.7090    5.8670   -2.6000 O   0  0
   -2.6560    3.6490   -2.0290 N   0  0
   -4.2850    5.9380   -2.0120 C   0  0
   -1.5290    2.9400   -1.8650 C   0  0
   -1.5100    1.5530   -2.1410 C   0  0
   -0.3480    3.5700   -1.4140 C   0  0
   -0.3220    0.7950   -1.9630 C   0  0
    0.8440    2.8280   -1.2460 C   0  0
    0.8750    1.4280   -1.5100 C   0  0
   -0.3280   -0.6660   -2.2480 C   0  0  1  0  0  0
    2.0960    0.5940   -1.3540 C   0  0
    0.9770   -1.1740   -2.5690 O   0  0
   -0.8770   -1.4080   -1.0740 C   0  0
    2.0820   -0.7030   -1.9530 C   0  0
    3.2740    1.0080   -0.6520 C   0  0
   -1.9770   -2.2690   -1.2380 C   0  0
   -0.2890   -1.2560    0.1930 C   0  0
    3.2330   -1.5230   -1.9240 C   0  0
    3.3540    2.1740    0.0040 O   0  0
    4.4140    0.1700   -0.6210 C   0  0
   -2.4860   -2.9750   -0.1370 C   0  0
   -0.8010   -1.9610    1.2950 C   0  0
    4.3990   -1.0880   -1.2600 C   0  0
    4.5800    2.4900    0.6440 C   0  0
   -1.9000   -2.8220    1.1350 C   0  0
   -2.3810   -3.4840    2.1680 O   0  0
   -1.5250   -3.9390    3.0620 C   0  0
   -1.8610   -3.9300    4.4280 C   0  0
   -0.2730   -4.4360    2.6540 C   0  0
   -0.9490   -4.4140    5.3830 C   0  0
    0.6370   -4.9200    3.6090 C   0  0
    0.2990   -4.9080    4.9730 C   0  0
   -3.4900    3.1950   -2.3460 H   0  0
   -4.3540    7.0080   -1.8130 H   0  0
   -5.0220    5.4360   -1.3850 H   0  0
   -4.5640    5.7740   -3.0510 H   0  0
   -2.4020    1.0530   -2.4900 H   0  0
   -0.3360    4.6290   -1.1930 H   0  0
    1.7090    3.3810   -0.9180 H   0  0
   -0.9710   -0.8790   -3.1040 H   0  0
   -2.4320   -2.3910   -2.2110 H   0  0
    0.5570   -0.5960    0.3260 H   0  0
    3.2190   -2.4880   -2.4060 H   0  0
    5.3050    0.4920   -0.1040 H   0  0
   -3.3320   -3.6350   -0.2660 H   0  0
   -0.3480   -1.8400    2.2680 H   0  0
    5.2760   -1.7170   -1.2400 H   0  0
    4.7520    1.7580    1.4340 H   0  0
    5.3560    2.5670   -0.1170 H   0  0
    4.4770    3.4690    1.1130 H   0  0
   -2.8200   -3.5510    4.7460 H   0  0
   -0.0120   -4.4450    1.6070 H   0  0
   -1.2110   -4.4040    6.4300 H   0  0
    1.5980   -5.2990    3.2930 H   0  0
    1.0000   -5.2810    5.7050 H   0  0
  1  2  2  0
  1  3  2  0
  1  4  1  0
  1  5  1  0
  4  6  1  0
  6  7  2  0
  6  8  1  0
  7  9  1  0
  8 10  2  0
  9 11  2  0
  9 12  1  0
 11 13  1  0
 12 14  1  0
 12 15  1  0
 13 16  2  0
 13 17  1  0
 15 18  2  0
 15 19  1  0
 16 20  1  0
 17 21  1  0
 17 22  2  0
 18 23  1  0
 19 24  2  0
 20 25  2  0
 21 26  1  0
 23 27  2  0
 27 28  1  0
 28 29  1  0
 29 30  2  0
 29 31  1  0
 30 32  1  0
 31 33  2  0
 32 34  2  0
 10 11  1  0
 14 16  1  0
 22 25  1  0
 24 27  1  0
 33 34  1  0
  4 35  1  0
  5 36  1  0
  5 37  1  0
  5 38  1  0
  7 39  1  0
  8 40  1  0
 10 41  1  0
 12 42  1  0
 18 43  1  0
 19 44  1  0
 20 45  1  0
 22 46  1  0
 23 47  1  0
 24 48  1  0
 25 49  1  0
 26 50  1  0
 26 51  1  0
 26 52  1  0
 30 53  1  0
 31 54  1  0
 32 55  1  0
 33 56  1  0
 34 57  1  0
M  END
> <Name>
CHEMBL64095

> <IC50 nM>
63

> <Molecule_ChEMBL_ID>
CHEMBL64095

> <Smiles>
COc1cccc2c1-c1ccc(NS(C)(=O)=O)cc1C(c1ccc(Oc3ccccc3)cc1)O2

$$$$
CHEMBL71818
  SciTegic08162514313D

 54 56  0  0  0  0            999 V2000
   -0.5700   -1.6110    3.6000 S   0  0
   -0.4980   -0.3650    4.3400 O   0  0
   -1.9320   -2.0470    3.3400 O   0  0
    0.1450   -1.3690    2.1660 N   0  0
    0.2750   -2.8850    4.5270 C   0  0
   -0.3550   -0.4300    1.2990 C   0  0
   -0.4080   -3.1060    5.8770 C   0  0
    0.2340   -0.2090    0.0310 C   0  0
   -1.4790    0.3240    1.6910 C   0  0
   -0.3110    0.7700   -0.8340 C   0  0
    1.4280   -1.0080   -0.3910 C   0  0
   -2.0140    1.2930    0.8300 C   0  0
    0.2320    1.0120   -2.0700 N   0  0
   -1.4340    1.5160   -0.4280 C   0  0
   -0.5570    0.8160   -3.2950 C   0  0
    1.6250    1.4710   -2.1840 C   0  0
   -1.2520   -0.4980   -3.2950 C   0  0
    1.9570    2.4710   -1.1350 C   0  0
   -2.6580   -0.5490   -3.2950 C   0  0
   -0.5060   -1.6900   -3.2950 C   0  0
    3.1520    2.3500   -0.4020 C   0  0
    1.0780    3.5350   -0.8710 C   0  0
   -3.3150   -1.7910   -3.2950 C   0  0
   -1.1640   -2.9320   -3.2950 C   0  0
    3.4670    3.2950    0.5900 C   0  0
    1.3930    4.4810    0.1210 C   0  0
   -2.5680   -2.9830   -3.2950 C   0  0
    2.5880    4.3590    0.8520 C   0  0
    0.9510   -1.9040    1.9120 H   0  0
    0.2910   -3.8090    3.9470 H   0  0
    1.3180   -2.6020    4.6660 H   0  0
    0.1020   -3.8850    6.4450 H   0  0
   -0.4140   -2.1860    6.4610 H   0  0
   -1.4430   -3.4180    5.7380 H   0  0
   -1.9410    0.1720    2.6560 H   0  0
    1.4980   -1.9900    0.0740 H   0  0
    2.3360   -0.4570   -0.1490 H   0  0
    1.4040   -1.1500   -1.4730 H   0  0
   -2.8750    1.8690    1.1350 H   0  0
   -1.8650    2.2680   -1.0760 H   0  0
    0.1050    0.8770   -4.1600 H   0  0
   -1.2910    1.6170   -3.3790 H   0  0
    1.7750    1.9140   -3.1680 H   0  0
    2.2930    0.6150   -2.0960 H   0  0
   -3.2360    0.3630   -3.2950 H   0  0
    0.5740   -1.6560   -3.2950 H   0  0
    3.8320    1.5330   -0.5980 H   0  0
    0.1580    3.6350   -1.4300 H   0  0
   -4.3950   -1.8300   -3.2950 H   0  0
   -0.5900   -3.8460   -3.2950 H   0  0
    4.3850    3.2030    1.1520 H   0  0
    0.7170    5.2990    0.3200 H   0  0
   -3.0740   -3.9380   -3.2950 H   0  0
    2.8300    5.0860    1.6130 H   0  0
  1  2  2  0
  1  3  2  0
  1  4  1  0
  1  5  1  0
  4  6  1  0
  5  7  1  0
  6  8  2  0
  6  9  1  0
  8 10  1  0
  8 11  1  0
  9 12  2  0
 10 13  1  0
 10 14  2  0
 13 15  1  0
 13 16  1  0
 15 17  1  0
 16 18  1  0
 17 19  2  0
 17 20  1  0
 18 21  2  0
 18 22  1  0
 19 23  1  0
 20 24  2  0
 21 25  1  0
 22 26  2  0
 23 27  2  0
 25 28  2  0
 12 14  1  0
 24 27  1  0
 26 28  1  0
  4 29  1  0
  5 30  1  0
  5 31  1  0
  7 32  1  0
  7 33  1  0
  7 34  1  0
  9 35  1  0
 11 36  1  0
 11 37  1  0
 11 38  1  0
 12 39  1  0
 14 40  1  0
 15 41  1  0
 15 42  1  0
 16 43  1  0
 16 44  1  0
 19 45  1  0
 20 46  1  0
 21 47  1  0
 22 48  1  0
 23 49  1  0
 24 50  1  0
 25 51  1  0
 26 52  1  0
 27 53  1  0
 28 54  1  0
M  END
> <Name>
CHEMBL71818

> <IC50 nM>
138

> <Molecule_ChEMBL_ID>
CHEMBL71818

> <Smiles>
CCS(=O)(=O)Nc1cccc(N(Cc2ccccc2)Cc2ccccc2)c1C

$$$$
CHEMBL308890
  SciTegic08162514313D

 54 56  0  0  0  0            999 V2000
    1.3560   -1.8180    3.7420 S   0  0
    0.3340   -1.2420    4.6010 O   0  0
    1.0260   -3.1520    3.2750 O   0  0
    1.4880   -0.8630    2.4390 N   0  0
    2.8970   -1.8870    4.6440 C   0  0
    0.4360   -0.7400    1.5680 C   0  0
    0.5510    0.0160    0.3790 C   0  0
   -0.7790   -1.3810    1.8770 C   0  0
   -0.5580    0.1230   -0.4960 C   0  0
    1.8400    0.6990    0.0490 C   0  0
   -1.8750   -1.2730    1.0100 C   0  0
   -0.4590    0.8560   -1.6570 N   0  0
   -1.7710   -0.5270   -0.1760 C   0  0
   -0.4880    0.1970   -2.9710 C   0  0
   -0.3200    2.3170   -1.5940 C   0  0
   -2.9650   -0.4410   -1.0670 C   0  0
    0.3030   -1.0600   -2.9710 C   0  0
   -0.9040    2.8690   -0.3440 C   0  0
   -0.3550   -2.3050   -2.9710 C   0  0
    1.7070   -1.0120   -2.9710 C   0  0
   -0.0660    3.4140    0.6460 C   0  0
   -2.2970    2.8460   -0.1490 C   0  0
    0.3910   -3.4960   -2.9710 C   0  0
    2.4530   -2.2030   -2.9710 C   0  0
   -0.6210    3.9360    1.8280 C   0  0
   -2.8510    3.3670    1.0330 C   0  0
    1.7950   -3.4450   -2.9710 C   0  0
   -2.0120    3.9120    2.0210 C   0  0
    2.3400   -0.3670    2.2690 H   0  0
    2.8670   -2.5160    5.5350 H   0  0
    3.1820   -0.8830    4.9570 H   0  0
    3.6840   -2.2690    3.9940 H   0  0
   -0.8850   -1.9630    2.7830 H   0  0
    2.7270    0.0800    0.1950 H   0  0
    1.9490    1.5880    0.6700 H   0  0
    1.8260    1.0200   -0.9920 H   0  0
   -2.8010   -1.7710    1.2580 H   0  0
   -0.0860    0.8790   -3.7210 H   0  0
   -1.5210   -0.0210   -3.2410 H   0  0
   -0.8180    2.7620   -2.4550 H   0  0
    0.7360    2.5800   -1.6470 H   0  0
   -3.8730   -0.4710   -0.4630 H   0  0
   -2.8940    0.4550   -1.6820 H   0  0
   -2.9800   -1.3030   -1.7350 H   0  0
   -1.4350   -2.3520   -2.9710 H   0  0
    2.2190   -0.0600   -2.9710 H   0  0
    1.0040    3.4340    0.5020 H   0  0
   -2.9470    2.4300   -0.9050 H   0  0
   -0.1150   -4.4490   -2.9710 H   0  0
    3.5330   -2.1640   -2.9710 H   0  0
    0.0240    4.3540    2.5880 H   0  0
   -3.9200    3.3500    1.1830 H   0  0
    2.3690   -4.3590   -2.9710 H   0  0
   -2.4370    4.3130    2.9290 H   0  0
  1  2  2  0
  1  3  2  0
  1  4  1  0
  1  5  1  0
  4  6  1  0
  6  7  2  0
  6  8  1  0
  7  9  1  0
  7 10  1  0
  8 11  2  0
  9 12  1  0
  9 13  2  0
 12 14  1  0
 12 15  1  0
 13 16  1  0
 14 17  1  0
 15 18  1  0
 17 19  2  0
 17 20  1  0
 18 21  2  0
 18 22  1  0
 19 23  1  0
 20 24  2  0
 21 25  1  0
 22 26  2  0
 23 27  2  0
 25 28  2  0
 11 13  1  0
 24 27  1  0
 26 28  1  0
  4 29  1  0
  5 30  1  0
  5 31  1  0
  5 32  1  0
  8 33  1  0
 10 34  1  0
 10 35  1  0
 10 36  1  0
 11 37  1  0
 14 38  1  0
 14 39  1  0
 15 40  1  0
 15 41  1  0
 16 42  1  0
 16 43  1  0
 16 44  1  0
 19 45  1  0
 20 46  1  0
 21 47  1  0
 22 48  1  0
 23 49  1  0
 24 50  1  0
 25 51  1  0
 26 52  1  0
 27 53  1  0
 28 54  1  0
M  END
> <Name>
CHEMBL308890

> <IC50 nM>
1100

> <Molecule_ChEMBL_ID>
CHEMBL308890

> <Smiles>
Cc1ccc(NS(C)(=O)=O)c(C)c1N(Cc1ccccc1)Cc1ccccc1

$$$$
CHEMBL3233273
  SciTegic08162514313D

 63 65  0  0  1  0            999 V2000
   -1.3200   -5.1720    2.6620 F   0  0
   -1.0230   -4.4940    1.5570 C   0  0
   -1.6640   -3.2720    1.2870 C   0  0
   -0.0700   -5.0000    0.6560 C   0  0
   -1.3520   -2.5570    0.1170 C   0  0
    0.2420   -4.2850   -0.5120 C   0  0
   -0.3970   -3.0630   -0.7870 C   0  0
   -2.0350   -1.2640   -0.1580 C   0  0
   -0.0960   -2.3980   -1.8850 O   0  0
   -0.8980   -0.4120    0.4080 C   0  0
   -3.3300   -1.1310    0.6450 C   0  0
   -2.2460   -1.0470   -1.6580 C   0  0
    0.2890   -3.1470   -3.0290 C   0  0
   -1.1170    1.0840    0.1860 C   0  0  1  0  0  0
   -2.5040    1.3200    0.1040 O   0  0
   -0.5840    1.7930    1.4320 C   0  0
   -0.4670    1.5920   -1.1030 C   0  0
   -0.8050    3.1680    0.8030 C   0  0
   -1.4610    1.5590    2.6620 C   0  0
    0.8930    1.4940    1.6950 C   0  0
    1.0410    1.4790   -1.0370 C   0  0
   -0.8890    4.2870    1.8420 C   0  0
    1.9020    2.6040   -0.9630 N   0  0
    1.8300    0.3110   -1.0390 C   0  0
    3.1930    2.1090   -0.9180 C   0  0
    3.1070    0.7400   -0.9670 C   0  0
    4.4690    2.7030   -0.8360 C   0  0
    4.2810   -0.0660   -0.9390 C   0  0
    5.6450    1.9820   -0.8050 N   0  0
    5.5430    0.5960   -0.8570 C   0  0
   -2.3970   -2.8850    1.9790 H   0  0
    0.4240   -5.9400    0.8590 H   0  0
    0.9750   -4.6760   -1.2010 H   0  0
   -0.7460   -0.6270    1.4650 H   0  0
    0.0610   -0.7270   -0.0040 H   0  0
   -3.1450   -0.7700    1.6560 H   0  0
   -3.8360   -2.0920    0.7210 H   0  0
   -4.0120   -0.4320    0.1620 H   0  0
   -1.3340   -0.7110   -2.1500 H   0  0
   -3.0160   -0.2970   -1.8340 H   0  0
   -2.5650   -1.9710   -2.1410 H   0  0
    1.2290   -3.6950   -2.9630 H   0  0
    0.3650   -2.4610   -3.8750 H   0  0
   -0.5020   -3.8630   -3.2520 H   0  0
   -2.7130    1.4730   -0.8320 H   0  0
   -0.7460    2.6270   -1.2930 H   0  0
   -0.8360    1.0350   -1.9650 H   0  0
   -0.0310    3.3830    0.0660 H   0  0
   -1.6910    3.1640    0.1680 H   0  0
   -1.0680    0.7660    3.2970 H   0  0
   -2.4730    1.2810    2.3670 H   0  0
   -1.5270    2.4650    3.2660 H   0  0
    1.0960    1.3520    2.7560 H   0  0
    1.5200    2.3130    1.3420 H   0  0
    1.2010    0.5880    1.1720 H   0  0
   -0.6640    5.2520    1.3870 H   0  0
   -1.8830    4.3240    2.2850 H   0  0
   -0.1720    4.1210    2.6450 H   0  0
    1.6290    3.5590   -0.9450 H   0  0
    1.4790   -0.7130   -1.0900 H   0  0
    4.5310    3.7810   -0.7970 H   0  0
    4.2250   -1.1450   -0.9800 H   0  0
    6.4470    0.0040   -0.8340 H   0  0
  1  2  1  0
  2  3  2  0
  2  4  1  0
  3  5  1  0
  4  6  2  0
  5  7  2  0
  5  8  1  0
  7  9  1  0
  8 10  1  0
  8 11  1  0
  8 12  1  0
  9 13  1  0
 10 14  1  0
 14 15  1  0
 14 16  1  0
 14 17  1  0
 16 18  1  0
 16 19  1  0
 16 20  1  0
 17 21  1  0
 18 22  1  0
 21 23  1  0
 21 24  2  0
 23 25  1  0
 24 26  1  0
 25 27  1  0
 26 28  1  0
 27 29  2  0
 28 30  2  0
  6  7  1  0
 25 26  2  0
 29 30  1  0
  3 31  1  0
  4 32  1  0
  6 33  1  0
 10 34  1  0
 10 35  1  0
 11 36  1  0
 11 37  1  0
 11 38  1  0
 12 39  1  0
 12 40  1  0
 12 41  1  0
 13 42  1  0
 13 43  1  0
 13 44  1  0
 15 45  1  0
 17 46  1  0
 17 47  1  0
 18 48  1  0
 18 49  1  0
 19 50  1  0
 19 51  1  0
 19 52  1  0
 20 53  1  0
 20 54  1  0
 20 55  1  0
 22 56  1  0
 22 57  1  0
 22 58  1  0
 23 59  1  0
 24 60  1  0
 27 61  1  0
 28 62  1  0
 30 63  1  0
M  END
> <Name>
CHEMBL3233273

> <IC50 nM>
13

> <Molecule_ChEMBL_ID>
CHEMBL3233273

> <Smiles>
CCC(C)(C)C(O)(Cc1cc2ccncc2[nH]1)CC(C)(C)c1cc(F)ccc1OC

$$$$
CHEMBL3233274
  SciTegic08162514313D

 55 58  0  0  1  0            999 V2000
   -3.1270   -1.4010   -4.9610 F   0  0
   -2.0700   -1.1430   -4.1930 C   0  0
   -2.2090   -0.3240   -3.0570 C   0  0
   -0.8160   -1.6860   -4.5160 C   0  0
   -1.0940   -0.0510   -2.2460 C   0  0
    0.2990   -1.4120   -3.7050 C   0  0
    0.1660   -0.5960   -2.5680 C   0  0
   -1.2520    0.8140   -1.0470 C   0  0
    1.2170   -0.3460   -1.8140 O   0  0
   -1.1880   -0.3500   -0.0570 C   0  0
   -2.6070    1.5230   -1.0390 C   0  0
   -0.0780    1.7850   -0.8940 C   0  0
    2.4320   -1.0120   -2.1250 C   0  0
   -1.7190    0.0230    1.3260 C   0  0  1  0  0  0
   -3.1110    0.2230    1.2250 O   0  0
   -1.4710   -1.1210    2.3010 C   0  0
   -1.0920    1.3050    1.8750 C   0  0
   -1.1250   -2.4960    1.7700 C   0  0
   -2.4770   -2.2480    2.4040 C   0  0
    0.4160    1.1910    1.9420 C   0  0
    1.2770    2.3160    2.0160 N   0  0
    1.2050    0.0250    1.9400 C   0  0
    2.5680    1.8220    2.0610 C   0  0
    2.4840    0.4550    2.0120 C   0  0
    3.8440    2.4180    2.1430 C   0  0
    3.6560   -0.3520    2.0390 C   0  0
    5.0200    1.6970    2.1740 N   0  0
    4.9200    0.3100    2.1210 C   0  0
   -3.1740    0.0940   -2.8090 H   0  0
   -0.7050   -2.3150   -5.3870 H   0  0
    1.2620   -1.8320   -3.9570 H   0  0
   -0.1720   -0.7400    0.0120 H   0  0
   -1.7130   -1.2190   -0.4510 H   0  0
   -2.7090    2.1930   -0.1850 H   0  0
   -3.4200    0.7970   -0.9920 H   0  0
   -2.7380    2.1130   -1.9450 H   0  0
    0.2810    2.1420   -1.8590 H   0  0
    0.7560    1.3030   -0.3850 H   0  0
   -0.3710    2.6520   -0.3050 H   0  0
    3.1930   -0.6800   -1.4200 H   0  0
    2.2360   -2.0840   -2.1520 H   0  0
    2.7460   -0.7050   -3.1230 H   0  0
   -3.4120    0.5740    2.0780 H   0  0
   -0.9800   -0.8050    3.2230 H   0  0
   -1.4820    1.5310    2.8670 H   0  0
   -1.3650    2.1620    1.2620 H   0  0
   -0.4000   -3.0860    2.3300 H   0  0
   -1.0880   -2.6330    0.6880 H   0  0
   -2.6580   -2.6720    3.3910 H   0  0
   -3.3480   -2.2190    1.7480 H   0  0
    1.0060    3.2730    2.0330 H   0  0
    0.8550   -0.9980    1.8890 H   0  0
    3.9080    3.4960    2.1820 H   0  0
    3.6020   -1.4300    1.9980 H   0  0
    5.8220   -0.2830    2.1450 H   0  0
  1  2  1  0
  2  3  2  0
  2  4  1  0
  3  5  1  0
  4  6  2  0
  5  7  2  0
  5  8  1  0
  7  9  1  0
  8 10  1  0
  8 11  1  0
  8 12  1  0
  9 13  1  0
 10 14  1  0
 14 15  1  0
 14 16  1  0
 14 17  1  0
 16 18  1  0
 16 19  1  0
 17 20  1  0
 20 21  1  0
 20 22  2  0
 21 23  1  0
 22 24  1  0
 23 25  1  0
 24 26  1  0
 25 27  2  0
 26 28  2  0
  6  7  1  0
 18 19  1  0
 23 24  2  0
 27 28  1  0
  3 29  1  0
  4 30  1  0
  6 31  1  0
 10 32  1  0
 10 33  1  0
 11 34  1  0
 11 35  1  0
 11 36  1  0
 12 37  1  0
 12 38  1  0
 12 39  1  0
 13 40  1  0
 13 41  1  0
 13 42  1  0
 15 43  1  0
 16 44  1  0
 17 45  1  0
 17 46  1  0
 18 47  1  0
 18 48  1  0
 19 49  1  0
 19 50  1  0
 21 51  1  0
 22 52  1  0
 25 53  1  0
 26 54  1  0
 28 55  1  0
M  END
> <Name>
CHEMBL3233274

> <IC50 nM>
15

> <Molecule_ChEMBL_ID>
CHEMBL3233274

> <Smiles>
COc1ccc(F)cc1C(C)(C)CC(O)(Cc1cc2ccncc2[nH]1)C1CC1

$$$$
CHEMBL3233279
  SciTegic08162514313D

 59 61  0  0  1  0            999 V2000
    3.8790   -1.3750    2.6050 F   0  0
    2.7050   -0.7560    2.7260 C   0  0
    1.6110   -1.1640    1.9430 C   0  0
    2.5630    0.3050    3.6370 C   0  0
    0.3710   -0.5120    2.0700 C   0  0
    1.3240    0.9570    3.7650 C   0  0
    0.2270    0.5530    2.9840 C   0  0
   -0.7770   -0.9570    1.2340 C   0  0
   -1.0760    1.2540    3.1330 C   0  0
   -0.6430    0.1950    0.2380 C   0  0
   -2.0920   -0.9120    2.0140 C   0  0
   -0.5140   -2.3200    0.5970 C   0  0
   -1.6480    0.1020   -0.9120 C   0  0  1  0  0  0
   -2.7360   -0.6840   -0.4830 O   0  0
   -2.1540    1.5220   -1.1660 C   0  0
   -1.0550   -0.5470   -2.1620 C   0  0
   -3.3110    1.0060   -2.0220 C   0  0
   -1.1600    2.3670   -1.9630 C   0  0
   -2.6290    2.2170    0.1110 C   0  0
    0.4590   -0.5720   -2.1020 C   0  0
    1.2150   -1.7730   -2.1000 N   0  0
    1.3480    0.5180   -2.0370 C   0  0
    2.5510   -1.4100   -2.0370 C   0  0
    2.5760   -0.0390   -2.0020 C   0  0
    3.7520   -2.1700   -2.0080 C   0  0
    3.8300    0.6050   -1.9320 C   0  0
    4.9880   -1.4590   -1.9400 C   0  0
    5.0330   -0.0680   -1.9010 N   0  0
    1.7250   -1.9800    1.2440 H   0  0
    3.4010    0.6210    4.2400 H   0  0
    1.2210    1.7720    4.4670 H   0  0
   -1.6930    0.7250    3.8550 H   0  0
   -0.8980    2.2930    3.4100 H   0  0
   -1.6020    1.2500    2.1780 H   0  0
    0.3750    0.2580   -0.1450 H   0  0
   -0.7280    1.1560    0.7460 H   0  0
   -2.7170   -1.7810    1.8060 H   0  0
   -2.6640   -0.0210    1.7560 H   0  0
   -1.9020   -0.8870    3.0880 H   0  0
   -0.2770   -3.0780    1.3440 H   0  0
    0.3220   -2.2660   -0.1000 H   0  0
   -1.3890   -2.6620    0.0430 H   0  0
   -2.6560   -1.5470   -0.9180 H   0  0
   -1.3730   -0.0160   -3.0590 H   0  0
   -1.4300   -1.5630   -2.2850 H   0  0
   -4.1990    0.8050   -1.4260 H   0  0
   -3.0330    0.0800   -2.5280 H   0  0
   -3.5800    1.7340   -2.7850 H   0  0
   -0.3200    2.6930   -1.3500 H   0  0
   -1.6460    3.2580   -2.3620 H   0  0
   -0.7620    1.8030   -2.8050 H   0  0
   -1.8050    2.6780    0.6540 H   0  0
   -3.1110    1.5040    0.7810 H   0  0
   -3.3520    2.9980   -0.1210 H   0  0
    0.8560   -2.6990   -2.1390 H   0  0
    1.0960    1.5700   -2.0220 H   0  0
    3.7310   -3.2480   -2.0390 H   0  0
    3.8600    1.6860   -1.9030 H   0  0
    5.9140   -2.0160   -1.9160 H   0  0
  1  2  1  0
  2  3  2  0
  2  4  1  0
  3  5  1  0
  4  6  2  0
  5  7  2  0
  5  8  1  0
  7  9  1  0
  8 10  1  0
  8 11  1  0
  8 12  1  0
 10 13  1  0
 13 14  1  0
 13 15  1  0
 13 16  1  0
 15 17  1  0
 15 18  1  0
 15 19  1  0
 16 20  1  0
 20 21  1  0
 20 22  2  0
 21 23  1  0
 22 24  1  0
 23 25  1  0
 24 26  1  0
 25 27  2  0
 26 28  2  0
  6  7  1  0
 23 24  2  0
 27 28  1  0
  3 29  1  0
  4 30  1  0
  6 31  1  0
  9 32  1  0
  9 33  1  0
  9 34  1  0
 10 35  1  0
 10 36  1  0
 11 37  1  0
 11 38  1  0
 11 39  1  0
 12 40  1  0
 12 41  1  0
 12 42  1  0
 14 43  1  0
 16 44  1  0
 16 45  1  0
 17 46  1  0
 17 47  1  0
 17 48  1  0
 18 49  1  0
 18 50  1  0
 18 51  1  0
 19 52  1  0
 19 53  1  0
 19 54  1  0
 21 55  1  0
 22 56  1  0
 25 57  1  0
 26 58  1  0
 27 59  1  0
M  END
> <Name>
CHEMBL3233279

> <IC50 nM>
5

> <Molecule_ChEMBL_ID>
CHEMBL3233279

> <Smiles>
Cc1ccc(F)cc1C(C)(C)CC(O)(Cc1cc2cnccc2[nH]1)C(C)(C)C

$$$$
CHEMBL1254734
  SciTegic08162514313D

 51 53  0  0  1  0            999 V2000
   -5.6510   -1.8110   -2.4980 F   0  0
   -4.9830   -0.8770   -1.8260 C   0  0
   -3.7790   -1.2030   -1.1760 C   0  0
   -5.4770    0.4370   -1.7660 C   0  0
   -3.0720   -0.2170   -0.4650 C   0  0
   -4.7700    1.4220   -1.0550 C   0  0
   -3.5670    1.1000   -0.4020 C   0  0
   -1.8010   -0.5740    0.2210 C   0  0
   -2.9120    2.0310    0.2620 O   0  0
   -0.9140    0.0660   -0.8480 C   0  0
   -1.6150   -2.0900    0.3090 C   0  0
   -1.6800    0.1150    1.5800 C   0  0
   -3.5280    3.3050    0.4020 C   0  0
    0.5600   -0.3130   -0.6970 C   0  0  1  0  0  0
    0.7090   -1.6640   -1.0680 O   0  0
    1.3360    0.5470   -1.6950 C   0  0
    1.0660   -0.1540    0.7380 C   0  0
    1.4300    1.8280   -1.2170 F   0  0
    0.6800    0.5550   -2.8980 F   0  0
    2.5940    0.0290   -1.8630 F   0  0
    2.5740   -0.2660    0.8030 C   0  0
    3.4350    0.8590    0.8790 N   0  0
    3.3630   -1.4340    0.8010 C   0  0
    4.7270    0.3650    0.9240 C   0  0
    4.6430   -1.0040    0.8730 C   0  0
    6.0020    0.9590    1.0040 C   0  0
    5.8140   -1.8110    0.9000 C   0  0
    7.1780    0.2380    1.0350 N   0  0
    7.0780   -1.1490    0.9840 C   0  0
   -3.3990   -2.2150   -1.2230 H   0  0
   -6.4010    0.6930   -2.2640 H   0  0
   -5.1540    2.4300   -1.0100 H   0  0
   -1.0350    1.1500   -0.8500 H   0  0
   -1.2740   -0.1800   -1.8460 H   0  0
   -2.4630   -2.5760    0.7910 H   0  0
   -0.7210   -2.3360    0.8810 H   0  0
   -1.5040   -2.5240   -0.6860 H   0  0
   -2.6520    0.2680    2.0450 H   0  0
   -1.2030    1.0900    1.4770 H   0  0
   -1.0740   -0.4810    2.2620 H   0  0
   -3.5720    3.7730   -0.5820 H   0  0
   -4.4790    3.1700    0.9160 H   0  0
   -2.8910    3.9220    1.0350 H   0  0
    1.0270   -2.1430   -0.2870 H   0  0
    0.6170   -0.9020    1.3910 H   0  0
    0.7560    0.8050    1.1520 H   0  0
    3.1640    1.8140    0.8960 H   0  0
    3.0140   -2.4570    0.7500 H   0  0
    6.0640    2.0370    1.0430 H   0  0
    5.7600   -2.8890    0.8610 H   0  0
    7.9800   -1.7400    1.0060 H   0  0
  1  2  1  0
  2  3  2  0
  2  4  1  0
  3  5  1  0
  4  6  2  0
  5  7  2  0
  5  8  1  0
  7  9  1  0
  8 10  1  0
  8 11  1  0
  8 12  1  0
  9 13  1  0
 10 14  1  0
 14 15  1  0
 14 16  1  0
 14 17  1  0
 16 18  1  0
 16 19  1  0
 16 20  1  0
 17 21  1  0
 21 22  1  0
 21 23  2  0
 22 24  1  0
 23 25  1  0
 24 26  1  0
 25 27  1  0
 26 28  2  0
 27 29  2  0
  6  7  1  0
 24 25  2  0
 28 29  1  0
  3 30  1  0
  4 31  1  0
  6 32  1  0
 10 33  1  0
 10 34  1  0
 11 35  1  0
 11 36  1  0
 11 37  1  0
 12 38  1  0
 12 39  1  0
 12 40  1  0
 13 41  1  0
 13 42  1  0
 13 43  1  0
 15 44  1  0
 17 45  1  0
 17 46  1  0
 22 47  1  0
 23 48  1  0
 26 49  1  0
 27 50  1  0
 29 51  1  0
M  END
> <Name>
CHEMBL1254734

> <IC50 nM>
10

> <Molecule_ChEMBL_ID>
CHEMBL1254734

> <Smiles>
COc1ccc(F)cc1C(C)(C)CC(O)(Cc1cc2ccncc2[nH]1)C(F)(F)F

$$$$
CHEMBL3261416
  SciTegic08162514313D

 66 69  0  0  1  0            999 V2000
   -0.4340   -3.4940    0.4590 S   0  0
   -1.4000   -4.4980    0.8670 O   0  0
    0.1580   -3.7620   -0.8400 O   0  0
   -1.3280   -2.0120    0.2810 N   0  0
    0.8320   -3.4490    1.6350 C   0  0
   -2.0250   -1.7810   -0.9710 C   0  0  1  0  0  0
    1.1450   -4.6050    2.3750 C   0  0
    1.5490   -2.2580    1.8540 C   0  0
   -3.2380   -2.7050   -1.0880 C   0  0
   -2.3930   -0.3050   -1.1170 C   0  0
    2.1740   -4.5680    3.3320 C   0  0
    0.3910   -5.8670    2.1520 C   0  0
    2.5780   -2.2250    2.8110 C   0  0
    1.2250   -1.0330    1.0740 C   0  0
   -2.9000   -4.0410   -1.7500 C   0  0
   -3.9790   -2.8750    0.2400 C   0  0
   -1.1890    0.5270   -1.2620 N   0  0
    2.8930   -3.3790    3.5490 C   0  0
   -1.3010    1.8690   -1.3320 C   0  0
    3.9810   -3.3420    4.5610 C   0  0
   -0.0660    2.5960   -1.4390 C   0  0
   -2.5430    2.5530   -1.3030 C   0  0
   -0.1430    3.9790   -1.5140 C   0  0
    1.2090    2.0310   -1.4790 C   0  0
   -2.5680    3.9690   -1.3810 C   0  0
    1.1600    4.3460   -1.6040 N   0  0
   -1.3610    4.6990   -1.4880 C   0  0
    1.9240    3.2030   -1.5820 N   0  0
    1.6470    5.6120   -1.7010 C   0  0
    2.6760    5.9060   -2.6170 C   0  0
    1.1210    6.6350   -0.8870 C   0  0
    3.1760    7.2150   -2.7170 C   0  0
    1.6230    7.9440   -0.9880 C   0  0
    2.6500    8.2350   -1.9020 C   0  0
    3.1270    9.4750   -1.9960 F   0  0
   -2.0080   -1.9260    1.0510 H   0  0
   -1.2580   -2.0590   -1.6930 H   0  0
   -4.0530   -2.2070   -1.6130 H   0  0
   -2.9630    0.0390   -0.2520 H   0  0
   -3.0410   -0.1500   -1.9800 H   0  0
    2.4160   -5.4550    3.9000 H   0  0
    0.2440   -6.1230    1.1020 H   0  0
   -0.5920   -5.7910    2.6150 H   0  0
    0.9200   -6.6950    2.6250 H   0  0
    3.1310   -1.3100    2.9770 H   0  0
    1.0610   -1.2070    0.0120 H   0  0
    2.0370   -0.3140    1.1740 H   0  0
    0.3220   -0.5740    1.4790 H   0  0
   -3.7790   -4.6760   -1.8550 H   0  0
   -2.1620   -4.5880   -1.1620 H   0  0
   -2.4840   -3.8830   -2.7440 H   0  0
   -4.9570   -3.3280    0.0800 H   0  0
   -3.4040   -3.5020    0.9240 H   0  0
   -4.1330   -1.9100    0.7210 H   0  0
   -0.2870    0.0980   -1.3090 H   0  0
    4.4750   -2.3730    4.6520 H   0  0
    4.7400   -4.0800    4.3050 H   0  0
    3.5780   -3.6030    5.5390 H   0  0
   -3.4730    2.0100   -1.2210 H   0  0
    1.5840    1.0180   -1.4410 H   0  0
   -3.5140    4.4920   -1.3590 H   0  0
   -1.3750    5.7780   -1.5470 H   0  0
    3.0920    5.1370   -3.2520 H   0  0
    0.3320    6.4300   -0.1780 H   0  0
    3.9650    7.4360   -3.4200 H   0  0
    1.2170    8.7230   -0.3590 H   0  0
  1  2  2  0
  1  3  2  0
  1  4  1  0
  1  5  1  0
  6  4  1  0
  5  7  2  0
  5  8  1  0
  6  9  1  0
  6 10  1  0
  7 11  1  0
  7 12  1  0
  8 13  2  0
  8 14  1  0
  9 15  1  0
  9 16  1  0
 10 17  1  0
 11 18  2  0
 17 19  1  0
 18 20  1  0
 19 21  2  0
 19 22  1  0
 21 23  1  0
 21 24  1  0
 22 25  2  0
 23 26  1  0
 23 27  2  0
 24 28  2  0
 26 29  1  0
 29 30  2  0
 29 31  1  0
 30 32  1  0
 31 33  2  0
 32 34  2  0
 34 35  1  0
 13 18  1  0
 25 27  1  0
 26 28  1  0
 33 34  1  0
  4 36  1  0
  6 37  1  0
  9 38  1  0
 10 39  1  0
 10 40  1  0
 11 41  1  0
 12 42  1  0
 12 43  1  0
 12 44  1  0
 13 45  1  0
 14 46  1  0
 14 47  1  0
 14 48  1  0
 15 49  1  0
 15 50  1  0
 15 51  1  0
 16 52  1  0
 16 53  1  0
 16 54  1  0
 17 55  1  0
 20 56  1  0
 20 57  1  0
 20 58  1  0
 22 59  1  0
 24 60  1  0
 25 61  1  0
 27 62  1  0
 30 63  1  0
 31 64  1  0
 32 65  1  0
 33 66  1  0
M  END
> <Name>
CHEMBL3261416

> <IC50 nM>
35

> <Molecule_ChEMBL_ID>
CHEMBL3261416

> <Smiles>
Cc1cc(C)c(S(=O)(=O)N[C@H](CNc2cccc3c2cnn3-c2ccc(F)cc2)C(C)C)c(C)c1

$$$$
CHEMBL2023621
  SciTegic08162514313D

 83 90  0  0  1  0            999 V2000
    5.4410   -0.2110   -2.7400 S   0  0
    6.9710   -0.5820   -2.1270 C   0  0
    4.4650   -0.1090   -1.2910 C   0  0
    7.1250   -0.7090   -0.8440 N   0  0
    8.0450   -0.7460   -3.0000 N   0  0
    3.0450    0.2210   -1.6660 C   0  0
    8.3090   -1.0040   -0.2440 C   0  0
    9.3180   -1.0510   -2.5430 C   0  0
    2.7770    0.6820   -2.7520 O   0  0
    1.9610   -0.0390   -0.6460 C   0  0  2  0  0  0
    9.4590   -1.1900   -1.0610 C   0  0
    8.4120   -1.1310    1.1620 C   0  0
   10.1970   -1.1780   -3.3650 O   0  0
    1.6540   -1.4240   -0.7230 O   0  0
    0.6890    0.8200   -0.8220 C   0  0  2  0  0  0
    2.3810    0.2890    0.8030 C   0  0
   10.7090   -1.4960   -0.4710 C   0  0
    9.6640   -1.4380    1.7480 C   0  0
   -0.0100    0.6020    0.5290 C   0  0  1  0  0  0
   -0.2810    0.4320   -1.9530 C   0  0
    1.1330    2.2870   -0.9630 C   0  0
    1.1330    0.8260    1.5180 C   0  0
   10.8090   -1.6190    0.9340 C   0  0
   -1.2680    1.4730    0.6910 C   0  0  1  0  0  0
   -1.6410    1.1560   -1.8500 C   0  0  1  0  0  0
   -2.2740    1.0530   -0.4320 C   0  0  2  0  0  0
   -1.8280    1.2970    2.1290 C   0  0
   -1.4900    2.5100   -2.2380 O   0  0
   -3.6580    1.7500   -0.2420 C   0  0  2  0  0  0
   -3.2540    1.8460    2.3010 C   0  0
   -4.0670    1.2830    1.1600 C   0  0
   -4.6990    1.4140   -1.3650 C   0  0
   -3.4840    3.2790   -0.2360 C   0  0
   -5.0260    0.3550    1.3750 C   0  0
   -5.5240    0.1640   -1.1040 C   0  0
   -5.6720   -0.2640    0.2030 C   0  0
   -6.1820   -0.5960   -2.0680 C   0  0
   -6.5000   -1.3340    0.0570 N   0  0
   -6.7770   -1.5160   -1.2640 N   0  0
   -6.9770   -2.1110    1.0630 C   0  0
   -8.3400   -2.4710    1.0920 C   0  0
   -6.1130   -2.5630    2.0780 C   0  0
   -8.8320   -3.2750    2.1330 C   0  0
   -6.6080   -3.3690    3.1170 C   0  0
   -7.9670   -3.7250    3.1470 C   0  0
   -8.4360   -4.4880    4.1310 F   0  0
    4.4960   -1.0630   -0.7640 H   0  0
    4.8630    0.6660   -0.6370 H   0  0
    7.8870   -0.6410   -3.9820 H   0  0
    7.5490   -0.9960    1.7990 H   0  0
    2.4470   -1.9080   -0.4450 H   0  0
    3.1460    1.0530    0.8160 H   0  0
    2.7950   -0.5650    1.3240 H   0  0
   11.5880   -1.6370   -1.0860 H   0  0
    9.7460   -1.5350    2.8200 H   0  0
   -0.3160   -0.4340    0.6110 H   0  0
   -0.4790   -0.6390   -1.9180 H   0  0
    0.1780    0.6130   -2.9260 H   0  0
    1.9430    2.5330   -0.2770 H   0  0
    0.3030    2.9630   -0.7540 H   0  0
    1.4800    2.4880   -1.9750 H   0  0
    1.2480    1.8790    1.7320 H   0  0
    0.9530    0.3240    2.4570 H   0  0
   11.7600   -1.8540    1.3890 H   0  0
   -1.0100    2.5250    0.5630 H   0  0
   -2.2990    0.6990   -2.5860 H   0  0
   -2.4510   -0.0180   -0.3010 H   0  0
   -1.1660    1.7770    2.8500 H   0  0
   -1.8340    0.2360    2.3890 H   0  0
   -1.2620    2.5140   -3.1800 H   0  0
   -3.2600    2.9370    2.2770 H   0  0
   -3.6680    1.5510    3.2660 H   0  0
   -5.4300    2.2250   -1.4220 H   0  0
   -4.2500    1.3790   -2.3550 H   0  0
   -4.3690    3.7660    0.1720 H   0  0
   -2.6150    3.5660    0.3570 H   0  0
   -3.3340    3.6520   -1.2480 H   0  0
   -5.2930    0.0510    2.3770 H   0  0
   -6.2360   -0.5160   -3.1470 H   0  0
   -9.0200   -2.1350    0.3220 H   0  0
   -5.0650   -2.2990    2.0740 H   0  0
   -9.8770   -3.5490    2.1500 H   0  0
   -5.9400   -3.7110    3.8950 H   0  0
  1  2  1  0
  1  3  1  0
  2  4  2  0
  2  5  1  0
  3  6  1  0
  4  7  1  0
  5  8  1  0
  6  9  2  0
  6 10  1  0
  7 11  2  0
  7 12  1  0
  8 13  2  0
 10 14  1  0
 10 15  1  0
 10 16  1  0
 11 17  1  0
 12 18  2  0
 15 19  1  0
 15 20  1  0
 15 21  1  0
 16 22  1  0
 17 23  2  0
 19 24  1  0
 20 25  1  0
 26 24  1  0
 24 27  1  0
 25 28  1  0
 26 29  1  0
 27 30  1  0
 29 31  1  0
 29 32  1  0
 29 33  1  0
 31 34  2  0
 32 35  1  0
 34 36  1  0
 35 37  1  0
 36 38  1  0
 37 39  2  0
 38 40  1  0
 40 41  2  0
 40 42  1  0
 41 43  1  0
 42 44  2  0
 43 45  2  0
 45 46  1  0
  8 11  1  0
 18 23  1  0
 19 22  1  0
 25 26  1  0
 30 31  1  0
 35 36  2  0
 38 39  1  0
 44 45  1  0
  3 47  1  0
  3 48  1  0
  5 49  1  0
 12 50  1  0
 14 51  1  0
 16 52  1  0
 16 53  1  0
 17 54  1  0
 18 55  1  0
 19 56  1  0
 20 57  1  0
 20 58  1  0
 21 59  1  0
 21 60  1  0
 21 61  1  0
 22 62  1  0
 22 63  1  0
 23 64  1  0
 24 65  1  0
 25 66  1  0
 26 67  1  0
 27 68  1  0
 27 69  1  0
 28 70  1  0
 30 71  1  0
 30 72  1  0
 32 73  1  0
 32 74  1  0
 33 75  1  0
 33 76  1  0
 33 77  1  0
 34 78  1  0
 37 79  1  0
 41 80  1  0
 42 81  1  0
 43 82  1  0
 44 83  1  0
M  END
> <Name>
CHEMBL2023621

> <IC50 nM>
3

> <Molecule_ChEMBL_ID>
CHEMBL2023621

> <Smiles>
C[C@]12Cc3cnn(-c4ccc(F)cc4)c3C=C1CC[C@@H]1[C@@H]2[C@@H](O)C[C@@]2(C)[C@H]1CC[C@]2(O)C(=O)CSc1nc2ccccc2c(=O)[nH]1

$$$$
CHEMBL2022652
  SciTegic08162514313D

 74 79  0  0  1  0            999 V2000
    5.3010    0.8260   -2.9040 O   0  0
    5.5650    0.3480   -1.8260 C   0  0
    4.4810    0.0880   -0.8050 C   0  0  2  0  0  0
    6.9810   -0.0060   -1.4590 C   0  0
    4.1740   -1.2950   -0.8830 O   0  0
    3.2090    0.9490   -0.9820 C   0  0  2  0  0  0
    4.8990    0.4160    0.6430 C   0  0
    7.6600   -0.4670   -2.6060 O   0  0
    2.5100    0.7290    0.3670 C   0  0  1  0  0  0
    2.2400    0.5610   -2.1130 C   0  0
    3.6540    2.4140   -1.1210 C   0  0
    3.6520    0.9530    1.3570 C   0  0
    1.2520    1.6020    0.5290 C   0  0  1  0  0  0
    0.8790    1.2870   -2.0120 C   0  0  1  0  0  0
    0.2480    1.1820   -0.5940 C   0  0  2  0  0  0
    0.6900    1.4240    1.9670 C   0  0
    1.0310    2.6410   -2.3980 O   0  0
   -1.1370    1.8790   -0.4040 C   0  0  2  0  0  0
   -0.7360    1.9730    2.1390 C   0  0
   -1.5470    1.4100    0.9980 C   0  0
   -2.1780    1.5470   -1.5290 C   0  0
   -0.9630    3.4080   -0.3960 C   0  0
   -2.5060    0.4800    1.2090 C   0  0
   -3.0040    0.2970   -1.2700 C   0  0
   -3.1500   -0.1330    0.0370 C   0  0
   -3.6620   -0.4630   -2.2340 C   0  0
   -3.9770   -1.1990   -0.1110 N   0  0
   -4.2580   -1.3830   -1.4300 N   0  0
   -4.4880   -2.0390    0.9860 C   0  0
   -5.8810   -2.6020    0.6410 C   0  0
   -3.4960   -3.1720    1.3160 C   0  0
   -6.4120   -3.5220    1.7500 C   0  0
   -4.0310   -4.0900    2.4240 C   0  0
   -5.4180   -4.6470    2.0760 C   0  0
    6.9830   -0.8050   -0.7190 H   0  0
    7.5000    0.8790   -1.0900 H   0  0
    4.9550   -1.7810   -0.5760 H   0  0
    5.6640    1.1800    0.6580 H   0  0
    5.3130   -0.4380    1.1640 H   0  0
    8.5670   -0.6840   -2.3320 H   0  0
    2.2030   -0.3070    0.4510 H   0  0
    2.0410   -0.5100   -2.0800 H   0  0
    2.6990    0.7420   -3.0860 H   0  0
    4.4470    2.6660   -0.4160 H   0  0
    2.8180    3.0900   -0.9380 H   0  0
    4.0260    2.6090   -2.1270 H   0  0
    3.7660    2.0060    1.5740 H   0  0
    3.4710    0.4510    2.2970 H   0  0
    1.5100    2.6540    0.4020 H   0  0
    0.2210    0.8300   -2.7480 H   0  0
    0.0680    0.1110   -0.4630 H   0  0
    1.3520    1.9040    2.6880 H   0  0
    0.6840    0.3630    2.2270 H   0  0
    1.2850    2.6430   -3.3340 H   0  0
   -0.7420    3.0630    2.1170 H   0  0
   -1.1500    1.6760    3.1020 H   0  0
   -2.9060    2.3570   -1.5860 H   0  0
   -1.7280    1.5140   -2.5200 H   0  0
   -1.8670    3.8970   -0.0310 H   0  0
   -0.1230    3.6970    0.2360 H   0  0
   -0.7660    3.7790   -1.4020 H   0  0
   -2.7750    0.1740    2.2090 H   0  0
   -3.7190   -0.3830   -3.3130 H   0  0
   -4.5860   -1.4020    1.8670 H   0  0
   -5.8360   -3.1660   -0.2930 H   0  0
   -6.5900   -1.7890    0.4750 H   0  0
   -2.5350   -2.7580    1.6230 H   0  0
   -3.3030   -3.7720    0.4260 H   0  0
   -7.3690   -3.9470    1.4530 H   0  0
   -6.6000   -2.9340    2.6480 H   0  0
   -4.0920   -3.5310    3.3590 H   0  0
   -3.3360   -4.9100    2.5980 H   0  0
   -5.7970   -5.2500    2.9000 H   0  0
   -5.3340   -5.3150    1.2170 H   0  0
  1  2  2  0
  2  3  1  0
  2  4  1  0
  3  5  1  0
  3  6  1  0
  3  7  1  0
  4  8  1  0
  6  9  1  0
  6 10  1  0
  6 11  1  0
  7 12  1  0
  9 13  1  0
 10 14  1  0
 15 13  1  0
 13 16  1  0
 14 17  1  0
 15 18  1  0
 16 19  1  0
 18 20  1  0
 18 21  1  0
 18 22  1  0
 20 23  2  0
 21 24  1  0
 23 25  1  0
 24 26  1  0
 25 27  1  0
 26 28  2  0
 27 29  1  0
 29 30  1  0
 29 31  1  0
 30 32  1  0
 31 33  1  0
 32 34  1  0
  9 12  1  0
 14 15  1  0
 19 20  1  0
 24 25  2  0
 27 28  1  0
 33 34  1  0
  4 35  1  0
  4 36  1  0
  5 37  1  0
  7 38  1  0
  7 39  1  0
  8 40  1  0
  9 41  1  0
 10 42  1  0
 10 43  1  0
 11 44  1  0
 11 45  1  0
 11 46  1  0
 12 47  1  0
 12 48  1  0
 13 49  1  0
 14 50  1  0
 15 51  1  0
 16 52  1  0
 16 53  1  0
 17 54  1  0
 19 55  1  0
 19 56  1  0
 21 57  1  0
 21 58  1  0
 22 59  1  0
 22 60  1  0
 22 61  1  0
 23 62  1  0
 26 63  1  0
 29 64  1  0
 30 65  1  0
 30 66  1  0
 31 67  1  0
 31 68  1  0
 32 69  1  0
 32 70  1  0
 33 71  1  0
 33 72  1  0
 34 73  1  0
 34 74  1  0
M  END
> <Name>
CHEMBL2022652

> <IC50 nM>
2.37

> <Molecule_ChEMBL_ID>
CHEMBL2022652

> <Smiles>
C[C@]12Cc3cnn(C4CCCCC4)c3C=C1CC[C@@H]1[C@@H]2[C@@H](O)C[C@@]2(C)[C@H]1CC[C@]2(O)C(=O)CO

$$$$
CHEMBL2024022
  SciTegic08162514313D

 68 72  0  0  1  0            999 V2000
   -6.9710   -0.1930   -0.1170 S   0  0
   -6.1210   -1.4770   -0.8500 C   0  0
   -8.4670   -0.8340   -0.5510 C   0  0
   -4.5350   -1.9940   -1.1020 S   0  0
   -6.9840   -2.3810   -1.4160 N   0  0
   -8.3010   -2.0310   -1.2540 C   0  0
   -9.7620   -0.1410   -0.1840 C   0  0
   -3.5940   -0.7400   -0.3240 C   0  0
   -9.4060   -2.9040   -1.8110 C   0  0
   -2.1290   -0.9960   -0.5550 C   0  0
   -1.7270   -2.1000   -0.8400 O   0  0
   -1.1780    0.1680   -0.4200 C   0  0  2  0  0  0
   -1.2320    0.8870   -1.6430 O   0  0
    0.2810   -0.2250   -0.0780 C   0  0  2  0  0  0
   -1.5370    1.1310    0.7280 C   0  0
    0.8630    1.1270    0.3550 C   0  0  1  0  0  0
    1.1640   -0.7640   -1.2210 C   0  0
    0.2320   -1.2010    1.1070 C   0  0
   -0.2150    1.6640    1.2950 C   0  0
    2.2870    1.0040    0.9240 C   0  0  1  0  0  0
    2.6520   -0.8810   -0.8140 C   0  0  1  0  0  0
    3.2150    0.4260   -0.1740 C   0  0  2  0  0  0
    2.7580    2.4080    1.3400 C   0  0
    2.8070   -1.9880    0.0510 O   0  0
    4.7150    0.3670    0.2680 C   0  0  2  0  0  0
    4.2070    2.4020    1.8260 C   0  0
    5.1540    1.7010    0.8710 C   0  0
    5.5880   -0.0060   -0.9590 C   0  0
    4.9380   -0.6620    1.3850 C   0  0
    6.3560    2.2560    0.5980 C   0  0
    7.0900    0.2010   -0.7340 C   0  0
    7.3670    1.6020   -0.2480 C   0  0
    8.3890    2.1760   -0.5430 O   0  0
   -9.6310    0.7850    0.3770 H   0  0
  -10.3750   -0.8110    0.4200 H   0  0
  -10.3180    0.0960   -1.0900 H   0  0
   -3.8070   -0.7380    0.7460 H   0  0
   -3.8710    0.2300   -0.7360 H   0  0
   -9.3320   -3.9020   -1.3810 H   0  0
  -10.3710   -2.4340   -1.6230 H   0  0
   -9.2850   -2.9960   -2.8910 H   0  0
   -2.1310    1.2460   -1.7230 H   0  0
   -2.0660    0.6110    1.5160 H   0  0
   -2.1860    1.9360    0.4120 H   0  0
    0.9080    1.7850   -0.5020 H   0  0
    1.1110   -0.0920   -2.0780 H   0  0
    0.7810   -1.7230   -1.5780 H   0  0
   -0.5270   -0.9180    1.8360 H   0  0
    1.1930   -1.2290    1.6230 H   0  0
    0.0080   -2.2110    0.7660 H   0  0
   -0.2010    2.7420    1.3440 H   0  0
   -0.0620    1.2930    2.2990 H   0  0
    2.2930    0.3500    1.7970 H   0  0
    3.2250   -1.1210   -1.7090 H   0  0
    3.1840    1.1580   -0.9840 H   0  0
    2.1170    2.8070    2.1250 H   0  0
    2.6700    3.0920    0.4940 H   0  0
    2.6110   -2.7850   -0.4670 H   0  0
    4.5270    3.4300    2.0020 H   0  0
    4.2580    1.8980    2.7910 H   0  0
    5.4140   -1.0430   -1.2480 H   0  0
    5.2850    0.5980   -1.8160 H   0  0
    5.8650   -0.4770    1.9300 H   0  0
    4.9860   -1.6700    0.9770 H   0  0
    4.1190   -0.6330    2.1040 H   0  0
    6.6020    3.2190    1.0200 H   0  0
    7.4630   -0.5120    0.0000 H   0  0
    7.6350    0.0180   -1.6600 H   0  0
  1  2  1  0
  1  3  1  0
  2  4  1  0
  2  5  2  0
  3  6  2  0
  3  7  1  0
  4  8  1  0
  6  9  1  0
  8 10  1  0
 10 11  2  0
 10 12  1  0
 12 13  1  0
 12 14  1  0
 12 15  1  0
 14 16  1  0
 14 17  1  0
 14 18  1  0
 15 19  1  0
 16 20  1  0
 17 21  1  0
 22 20  1  0
 20 23  1  0
 21 24  1  0
 22 25  1  0
 23 26  1  0
 25 27  1  0
 25 28  1  0
 25 29  1  0
 27 30  2  0
 28 31  1  0
 30 32  1  0
 32 33  2  0
  5  6  1  0
 16 19  1  0
 21 22  1  0
 26 27  1  0
 31 32  1  0
  7 34  1  0
  7 35  1  0
  7 36  1  0
  8 37  1  0
  8 38  1  0
  9 39  1  0
  9 40  1  0
  9 41  1  0
 13 42  1  0
 15 43  1  0
 15 44  1  0
 16 45  1  0
 17 46  1  0
 17 47  1  0
 18 48  1  0
 18 49  1  0
 18 50  1  0
 19 51  1  0
 19 52  1  0
 20 53  1  0
 21 54  1  0
 22 55  1  0
 23 56  1  0
 23 57  1  0
 24 58  1  0
 26 59  1  0
 26 60  1  0
 28 61  1  0
 28 62  1  0
 29 63  1  0
 29 64  1  0
 29 65  1  0
 30 66  1  0
 31 67  1  0
 31 68  1  0
M  END
> <Name>
CHEMBL2024022

> <IC50 nM>
4.3

> <Molecule_ChEMBL_ID>
CHEMBL2024022

> <Smiles>
Cc1nc(SCC(=O)[C@@]2(O)CC[C@H]3[C@@H]4CCC5=CC(=O)CC[C@]5(C)[C@H]4[C@@H](O)C[C@@]32C)sc1C

$$$$
CHEMBL2024026
  SciTegic08162514313D

 67 72  0  0  1  0            999 V2000
    4.7440   -1.5060   -1.7010 S   0  0
    5.4810   -1.8400   -0.1520 C   0  0
    5.5800   -2.8340   -2.2030 C   0  0
    5.4750   -1.1800    1.4020 S   0  0
    6.3300   -2.9710   -0.1370 N   0  0
    6.3790   -3.5550   -1.3730 C   0  0
    5.5410   -3.3380   -3.5350 C   0  0
    4.4160    0.2010    1.2270 C   0  0
    7.1510   -4.6660   -1.5640 N   0  0
    6.3050   -4.5020   -3.8770 C   0  0
    2.9820   -0.2620    1.2330 C   0  0
    7.0980   -5.1410   -2.8690 C   0  0
    2.7070   -1.4340    1.1290 O   0  0
    1.9000    0.7830    1.3690 C   0  0  2  0  0  0
    1.8050    1.0980    2.7480 O   0  0
    0.5220    0.3590    0.8050 C   0  0  2  0  0  0
    2.1910    2.0820    0.5900 C   0  0
   -0.2050    1.7090    0.7330 C   0  0  1  0  0  0
   -0.3380   -0.5960    1.6540 C   0  0
    0.7540   -0.1990   -0.6090 C   0  0
    0.8440    2.6070    0.0760 C   0  0
   -1.5760    1.6110    0.0410 C   0  0  1  0  0  0
   -1.7790   -0.7340    1.1090 C   0  0  1  0  0  0
   -2.4710    0.6390    0.8500 C   0  0  2  0  0  0
   -2.2010    3.0140   -0.0020 C   0  0
   -1.7500   -1.5270   -0.0620 O   0  0
   -3.9340    0.5570    0.3050 C   0  0  2  0  0  0
   -3.6150    2.9880   -0.5840 C   0  0
   -4.5080    1.9530    0.0720 C   0  0
   -4.8030   -0.2460    1.3110 C   0  0
   -3.9920   -0.1190   -1.0720 C   0  0
   -5.7730    2.2790    0.4120 C   0  0
   -6.3090   -0.1370    1.0470 C   0  0
   -6.7290    1.3090    0.9730 C   0  0
   -7.8150    1.6680    1.3630 O   0  0
    4.9400   -2.8480   -4.2850 H   0  0
    4.5840    0.8950    2.0510 H   0  0
    4.6370    0.7130    0.2910 H   0  0
    6.2830   -4.8930   -4.8850 H   0  0
    7.6700   -6.0180   -3.1330 H   0  0
    2.6410    1.5160    3.0060 H   0  0
    2.7010    2.8260    1.1900 H   0  0
    2.8340    1.8890   -0.2580 H   0  0
   -0.3710    2.0780    1.7360 H   0  0
    0.1450   -1.5720    1.7310 H   0  0
   -0.4060   -0.2230    2.6760 H   0  0
    1.5140    0.3650   -1.1480 H   0  0
   -0.1640   -0.1640   -1.1930 H   0  0
    1.0820   -1.2380   -0.5640 H   0  0
    0.7930    2.5210   -1.0000 H   0  0
    0.6930    3.6480    0.3260 H   0  0
   -1.4570    1.2420   -0.9780 H   0  0
   -2.3570   -1.3050    1.8360 H   0  0
   -2.5550    1.0900    1.8400 H   0  0
   -1.5840    3.6890   -0.5940 H   0  0
   -2.2380    3.4360    1.0060 H   0  0
   -1.4790   -2.4200    0.2030 H   0  0
   -4.0550    3.9840   -0.5020 H   0  0
   -3.5610    2.7680   -1.6500 H   0  0
   -4.6090    0.1070    2.3240 H   0  0
   -4.5200   -1.3010    1.3050 H   0  0
   -4.9300    0.1190   -1.5780 H   0  0
   -3.1600    0.2070   -1.6970 H   0  0
   -3.9320   -1.2010   -0.9750 H   0  0
   -6.1170    3.2930    0.2620 H   0  0
   -6.5650   -0.6330    0.1110 H   0  0
   -6.8650   -0.6430    1.8380 H   0  0
  1  2  1  0
  1  3  1  0
  2  4  1  0
  2  5  2  0
  3  6  1  0
  3  7  2  0
  4  8  1  0
  6  9  2  0
  7 10  1  0
  8 11  1  0
  9 12  1  0
 11 13  2  0
 11 14  1  0
 14 15  1  0
 14 16  1  0
 14 17  1  0
 16 18  1  0
 16 19  1  0
 16 20  1  0
 17 21  1  0
 18 22  1  0
 19 23  1  0
 24 22  1  0
 22 25  1  0
 23 26  1  0
 24 27  1  0
 25 28  1  0
 27 29  1  0
 27 30  1  0
 27 31  1  0
 29 32  2  0
 30 33  1  0
 32 34  1  0
 34 35  2  0
  5  6  1  0
 10 12  2  0
 18 21  1  0
 23 24  1  0
 28 29  1  0
 33 34  1  0
  7 36  1  0
  8 37  1  0
  8 38  1  0
 10 39  1  0
 12 40  1  0
 15 41  1  0
 17 42  1  0
 17 43  1  0
 18 44  1  0
 19 45  1  0
 19 46  1  0
 20 47  1  0
 20 48  1  0
 20 49  1  0
 21 50  1  0
 21 51  1  0
 22 52  1  0
 23 53  1  0
 24 54  1  0
 25 55  1  0
 25 56  1  0
 26 57  1  0
 28 58  1  0
 28 59  1  0
 30 60  1  0
 30 61  1  0
 31 62  1  0
 31 63  1  0
 31 64  1  0
 32 65  1  0
 33 66  1  0
 33 67  1  0
M  END
> <Name>
CHEMBL2024026

> <IC50 nM>
4.7

> <Molecule_ChEMBL_ID>
CHEMBL2024026

> <Smiles>
C[C@]12CCC(=O)C=C1CC[C@@H]1[C@@H]2[C@@H](O)C[C@@]2(C)[C@H]1CC[C@]2(O)C(=O)CSc1nc2ncccc2s1

$$$$
CHEMBL78124
  SciTegic08162514313D

 93 98  0  0  1  0            999 V2000
    3.9690   -1.1150   -3.8500 O   0  0
    2.7970   -1.0350   -3.5660 C   0  0
    1.8980   -0.1760   -4.3650 C   0  0
    2.2230   -1.8010   -2.3980 C   0  0
    0.5760   -0.0880   -4.1060 C   0  0
    0.7090   -2.0700   -2.5160 C   0  0
   -0.0570   -0.8590   -3.0140 C   0  0
   -0.3220    0.8120   -4.9160 C   0  0
   -1.2600   -0.4840   -2.5080 C   0  0
   -1.1370    1.6800   -3.9610 C   0  0
   -2.0510   -1.3750   -1.5530 C   0  0  1  0  0  0
   -1.8750    0.8710   -2.8610 C   0  0  1  0  0  0
   -1.6890   -1.0660   -0.1450 C   0  0
   -3.5880   -1.3140   -1.7830 C   0  0
   -3.3950    0.7540   -3.1210 C   0  0  1  0  0  0
   -0.6540   -0.1540    0.1310 C   0  0
   -2.3810   -1.6840    0.9120 C   0  0
   -4.1060    0.1350   -1.9040 C   0  0  1  0  0  0
   -4.1410    2.0820   -3.2540 C   0  0
   -0.3110    0.1390    1.4630 C   0  0
   -2.0390   -1.3930    2.2420 C   0  0
   -5.6060    0.3930   -2.2150 C   0  0  2  0  0  0
   -3.7560    0.9390   -0.6410 C   0  0
   -5.6000    1.7770   -2.8930 C   0  0
   -1.0020   -0.4800    2.5220 C   0  0
   -6.3890    0.4340   -1.0270 O   0  0
   -6.2150   -0.6250   -3.0880 C   0  0
   -0.6680   -0.1950    3.8200 N   0  0
   -6.7340   -1.4410   -3.7850 C   0  0
    0.3440    0.8220    4.1350 C   0  0
   -1.3260   -0.9120    4.9220 C   0  0
   -7.3790   -2.4380   -4.6330 C   0  0
    1.7560    0.2520    3.9960 C   0  0
    2.8420    1.3010    4.2310 C   0  0
    4.2560    0.7150    4.1560 C   0  0  3  0  0  0
    4.4510    0.2830    2.8140 O   0  0
    5.3520    1.7380    4.5310 C   0  0  3  0  0  0
    5.6860   -0.3790    2.5660 C   0  0  3  0  0  0
    5.1990    2.0860    5.8970 O   0  0
    6.7640    1.1620    4.2930 C   0  0  3  0  0  0
    5.6640   -0.8670    1.1390 C   0  0
    6.8580    0.5880    2.8590 C   0  0  3  0  0  0
    7.7360    2.1800    4.4690 O   0  0
    5.8380   -0.1050    0.2170 O   0  0
    5.4450   -2.1720    0.9900 O   0  0
    8.0820   -0.1090    2.7050 O   0  0
    2.3220    0.3950   -5.1760 H   0  0
    2.4220   -1.2310   -1.4880 H   0  0
    2.7520   -2.7460   -2.2850 H   0  0
    0.3550   -2.3890   -1.5330 H   0  0
    0.5310   -2.8990   -3.1950 H   0  0
   -0.9840    0.1950   -5.5240 H   0  0
    0.2540    1.4380   -5.5980 H   0  0
   -0.4470    2.3710   -3.4710 H   0  0
   -1.8240    2.3090   -4.5240 H   0  0
   -1.7730   -2.4120   -1.7110 H   0  0
   -1.7580    1.4840   -1.9710 H   0  0
   -3.8340   -1.8910   -2.6880 H   0  0
   -4.1130   -1.8200   -0.9670 H   0  0
   -3.5610    0.1580   -4.0160 H   0  0
   -0.1190    0.3240   -0.6760 H   0  0
   -3.1760   -2.3850    0.7030 H   0  0
   -4.0550    2.5080   -4.2420 H   0  0
   -3.7380    2.8090   -2.5610 H   0  0
    0.4880    0.8420    1.6560 H   0  0
   -2.5820   -1.8790    3.0430 H   0  0
   -4.1060    1.9710   -0.7050 H   0  0
   -2.6760    0.9630   -0.4840 H   0  0
   -4.2090    0.4880    0.2420 H   0  0
   -5.9670    2.5590   -2.2380 H   0  0
   -6.2230    1.8200   -3.7790 H   0  0
   -7.2440    0.8260   -1.2620 H   0  0
    0.1780    1.1910    5.1470 H   0  0
    0.2090    1.6800    3.4770 H   0  0
   -2.4000   -0.7460    5.0000 H   0  0
   -0.8730   -0.6110    5.8670 H   0  0
   -1.1640   -1.9820    4.8010 H   0  0
   -6.7340   -3.3110   -4.7330 H   0  0
   -7.5630   -2.0200   -5.6230 H   0  0
   -8.3280   -2.7460   -4.1990 H   0  0
    1.8850   -0.2250    3.0230 H   0  0
    1.8950   -0.6020    4.6580 H   0  0
    2.6880    1.8110    5.1820 H   0  0
    2.7320    2.1330    3.5350 H   0  0
    4.3130   -0.1640    4.7990 H   0  0
    5.2150    2.6500    3.9470 H   0  0
    5.7330   -1.2460    3.2290 H   0  0
    4.6930    2.9140    5.9280 H   0  0
    6.9710    0.3730    5.0200 H   0  0
    6.8500    1.4020    2.1330 H   0  0
    8.6040    1.7460    4.4900 H   0  0
    5.4200   -2.5490    0.1020 H   0  0
    8.1780   -0.3090    1.7600 H   0  0
  1  2  2  0
  2  3  1  0
  2  4  1  0
  3  5  2  0
  4  6  1  0
  5  7  1  0
  5  8  1  0
  7  9  2  0
  8 10  1  0
  9 11  1  0
  9 12  1  0
 11 13  1  0
 11 14  1  0
 12 15  1  0
 13 16  2  0
 13 17  1  0
 14 18  1  0
 15 19  1  0
 16 20  1  0
 17 21  2  0
 18 22  1  0
 18 23  1  0
 19 24  1  0
 20 25  2  0
 22 26  1  0
 22 27  1  0
 25 28  1  0
 27 29  3  0
 28 30  1  0
 28 31  1  0
 29 32  1  0
 30 33  1  0
 33 34  1  0
 34 35  1  0
 35 36  1  0
 35 37  1  0
 36 38  1  0
 37 39  1  0
 37 40  1  0
 38 41  1  0
 38 42  1  0
 40 43  1  0
 41 44  2  0
 41 45  1  0
 42 46  1  0
  6  7  1  0
 12 10  1  0
 15 18  1  0
 21 25  1  0
 22 24  1  0
 40 42  1  0
  3 47  1  0
  4 48  1  0
  4 49  1  0
  6 50  1  0
  6 51  1  0
  8 52  1  0
  8 53  1  0
 10 54  1  0
 10 55  1  0
 11 56  1  0
 12 57  1  0
 14 58  1  0
 14 59  1  0
 15 60  1  0
 16 61  1  0
 17 62  1  0
 19 63  1  0
 19 64  1  0
 20 65  1  0
 21 66  1  0
 23 67  1  0
 23 68  1  0
 23 69  1  0
 24 70  1  0
 24 71  1  0
 26 72  1  0
 30 73  1  0
 30 74  1  0
 31 75  1  0
 31 76  1  0
 31 77  1  0
 32 78  1  0
 32 79  1  0
 32 80  1  0
 33 81  1  0
 33 82  1  0
 34 83  1  0
 34 84  1  0
 35 85  1  0
 37 86  1  0
 38 87  1  0
 39 88  1  0
 40 89  1  0
 42 90  1  0
 43 91  1  0
 45 92  1  0
 46 93  1  0
M  END
> <Name>
CHEMBL78124

> <IC50 nM>
16.7

> <Molecule_ChEMBL_ID>
CHEMBL78124

> <Smiles>
CC#C[C@]1(O)CC[C@H]2[C@@H]3CCC4=CC(=O)CCC4=C3[C@@H](c3ccc(N(C)CCCC4OC(C(=O)O)C(O)C(O)C4O)cc3)C[C@@]21C

$$$$
CHEMBL438885
  SciTegic08162514313D

 47 50  0  0  1  0            999 V2000
   -1.0880    2.5020   -0.4940 Cl  0  0
   -0.5120    0.9470    0.0140 C   0  0
   -1.4280   -0.1390    0.1090 C   0  0
    0.8750    0.7340    0.3260 C   0  0
   -2.8590    0.0310   -0.1390 C   0  0
   -0.9790   -1.4300    0.4490 C   0  0
    1.3340   -0.6040    0.5840 C   0  0
    1.8420    1.8870    0.3710 C   0  0  2  0  0  0
   -3.4820   -0.5650   -1.2660 C   0  0
   -3.6480    0.8030    0.7540 C   0  0
    0.3930   -1.6700    0.6720 C   0  0
    2.6620   -0.8710    0.7380 N   0  0
    3.2190    1.5080    0.9470 C   0  0
    1.3260    3.0760    1.1970 C   0  0
   -2.9960   -1.3580   -2.2990 N   0  0
   -4.8240   -0.4040   -1.4980 C   0  0
   -5.0410    0.9650    0.5100 C   0  0
    0.7990   -3.0550    0.9860 C   0  0
    3.7110    0.1390    0.4630 C   0  0
   -4.0900   -1.6580   -3.1470 C   0  0
   -5.6410    0.3590   -0.6270 C   0  0
   -5.2360   -1.0430   -2.6150 C   0  0
   -5.9960    1.8960    1.5860 Cl  0  0
    4.9960   -0.2440    1.2090 C   0  0
    3.9920    0.1640   -1.0430 C   0  0
   -1.6800   -2.2500    0.5370 H   0  0
    1.9880    2.2210   -0.6580 H   0  0
   -3.1950    1.2660    1.6210 H   0  0
    2.9690   -1.7810    1.0190 H   0  0
    3.1620    1.4960    2.0370 H   0  0
    3.9490    2.2810    0.6990 H   0  0
    0.8610    3.8220    0.5510 H   0  0
    0.5980    2.7460    1.9370 H   0  0
    2.1450    3.5600    1.7280 H   0  0
   -2.0570   -1.6580   -2.4260 H   0  0
    1.3890   -3.1530    1.8980 H   0  0
    1.3910   -3.4570    0.1640 H   0  0
   -0.0880   -3.6800    1.0960 H   0  0
   -4.0140   -2.2640   -4.0410 H   0  0
   -6.6970    0.4760   -0.8240 H   0  0
   -6.2380   -1.0800   -3.0260 H   0  0
    4.8400   -0.2930    2.2870 H   0  0
    5.7830    0.4860    1.0190 H   0  0
    5.3580   -1.2170    0.8790 H   0  0
    3.0980    0.3980   -1.6190 H   0  0
    4.3630   -0.8030   -1.3810 H   0  0
    4.7480    0.9140   -1.2810 H   0  0
  1  2  1  0
  2  3  2  0
  2  4  1  0
  3  5  1  0
  3  6  1  0
  4  7  2  0
  4  8  1  0
  5  9  2  0
  5 10  1  0
  6 11  2  0
  7 12  1  0
  8 13  1  0
  8 14  1  0
  9 15  1  0
  9 16  1  0
 10 17  2  0
 11 18  1  0
 12 19  1  0
 15 20  1  0
 16 21  2  0
 16 22  1  0
 17 23  1  0
 19 24  1  0
 19 25  1  0
  7 11  1  0
 13 19  1  0
 17 21  1  0
 20 22  2  0
  6 26  1  0
  8 27  1  0
 10 28  1  0
 12 29  1  0
 13 30  1  0
 13 31  1  0
 14 32  1  0
 14 33  1  0
 14 34  1  0
 15 35  1  0
 18 36  1  0
 18 37  1  0
 18 38  1  0
 20 39  1  0
 21 40  1  0
 22 41  1  0
 24 42  1  0
 24 43  1  0
 24 44  1  0
 25 45  1  0
 25 46  1  0
 25 47  1  0
M  END
> <Name>
CHEMBL438885

> <IC50 nM>
1000

> <Molecule_ChEMBL_ID>
CHEMBL438885

> <Smiles>
Cc1cc(-c2cc(Cl)cc3cc[nH]c23)c(Cl)c2c1NC(C)(C)CC2C

$$$$
CHEMBL1835832
  SciTegic08162514313D

 38 40  0  0  0  0            999 V2000
    2.3150   -1.1210   -1.4750 S   0  0
    1.0060   -1.6430   -0.5410 C   0  0
    3.1230   -2.5880   -1.1540 C   0  0
   -0.2150   -0.8220   -0.3260 C   0  0
    1.1170   -2.9080    0.0350 C   0  0
    2.3670   -3.4550   -0.3320 C   0  0
   -0.0980    0.5040    0.1720 C   0  0
   -1.4510   -1.4260   -0.6390 C   0  0
    1.0880    1.0610    0.4650 N   0  0
   -1.2970    1.2420    0.3570 C   0  0
   -2.6270   -0.6660   -0.4430 C   0  0
    1.4340    2.3830   -0.0780 C   0  0
    2.0590    0.3690    1.3260 C   0  0
   -2.5570    0.6660    0.0550 C   0  0
   -3.9610   -1.2400   -0.7500 C   0  0
    1.3730    2.3790   -1.6070 C   0  0
    2.3670    1.1950    2.5760 C   0  0
   -3.6890    1.3850    0.2380 O   0  0
   -5.0570   -0.4820   -0.5470 C   0  0
   -4.9200    0.8980   -0.0290 C   0  0
   -5.9220    1.5530    0.1390 O   0  0
    4.1060   -2.8180   -1.5430 H   0  0
    0.3810   -3.3990    0.6600 H   0  0
    2.7090   -4.4320   -0.0180 H   0  0
   -1.5000   -2.4380   -1.0180 H   0  0
   -1.2650    2.2540    0.7340 H   0  0
    2.4280    2.6640    0.2680 H   0  0
    0.7520    3.1270    0.3320 H   0  0
    1.6600   -0.6070    1.6000 H   0  0
    2.9670    0.1740    0.7580 H   0  0
   -4.0530   -2.2500   -1.1290 H   0  0
    1.6370    3.3500   -2.0250 H   0  0
    0.3710    2.1270   -1.9530 H   0  0
    2.0630    1.6410   -2.0180 H   0  0
    3.0670    0.6680    3.2230 H   0  0
    2.7950    2.1600    2.3030 H   0  0
    1.4590    1.3830    3.1480 H   0  0
   -6.0350   -0.8850   -0.7640 H   0  0
  1  2  1  0
  1  3  1  0
  2  4  1  0
  2  5  2  0
  3  6  2  0
  4  7  2  0
  4  8  1  0
  7  9  1  0
  7 10  1  0
  8 11  2  0
  9 12  1  0
  9 13  1  0
 10 14  2  0
 11 15  1  0
 12 16  1  0
 13 17  1  0
 14 18  1  0
 15 19  2  0
 18 20  1  0
 20 21  2  0
  5  6  1  0
 11 14  1  0
 19 20  1  0
  3 22  1  0
  5 23  1  0
  6 24  1  0
  8 25  1  0
 10 26  1  0
 12 27  1  0
 12 28  1  0
 13 29  1  0
 13 30  1  0
 15 31  1  0
 16 32  1  0
 16 33  1  0
 16 34  1  0
 17 35  1  0
 17 36  1  0
 17 37  1  0
 19 38  1  0
M  END
> <Name>
CHEMBL1835832

> <IC50 nM>
4960

> <Molecule_ChEMBL_ID>
CHEMBL1835832

> <Smiles>
CCN(CC)c1cc2oc(=O)ccc2cc1-c1cccs1

$$$$
CHEMBL2087281
  SciTegic08162514313D

 54 57  0  0  0  0            999 V2000
    3.5570   -3.6190   -2.7190 O   0  0
    3.2540   -2.4670   -2.9240 C   0  0
    3.3920   -1.8610   -4.1000 O   0  0
    2.6870   -1.6170   -1.8340 C   0  0
    2.4960   -2.1540   -0.5490 C   0  0
    2.3420   -0.2790   -2.0920 C   0  0
    1.9630   -1.3580    0.4770 C   0  0
    1.8070    0.5210   -1.0680 C   0  0
    1.6150   -0.0160    0.2210 C   0  0
    1.0940    0.7620    1.2190 N   0  0
    0.5040    2.0760    0.9260 C   0  0
    1.1210    0.2890    2.6090 C   0  0
   -0.7480    1.9490    0.1350 C   0  0
    2.5120    0.1950    3.1310 C   0  0
   -0.8710    2.6130   -1.1000 C   0  0
   -1.8110    1.1680    0.6190 C   0  0
    2.9780   -1.0140    3.6780 C   0  0
    3.3590    1.3140    3.0740 C   0  0
   -2.0570    2.4920   -1.8460 C   0  0
   -2.9940    1.0490   -0.1290 C   0  0
    4.2910   -1.1020    4.1700 C   0  0
    4.6740    1.2270    3.5640 C   0  0
   -3.1210    1.7110   -1.3630 C   0  0
    5.1410    0.0190    4.1130 C   0  0
   -4.2310    1.6000   -2.0650 O   0  0
   -4.8480    0.4350   -2.0650 C   0  0
   -6.2540    0.3810   -2.0650 C   0  0
   -4.1060   -0.7580   -2.0650 C   0  0
   -6.9120   -0.8610   -2.0650 C   0  0
   -4.7620   -2.0000   -2.0650 C   0  0
   -6.1660   -2.0530   -2.0650 C   0  0
    3.7560   -2.3560   -4.8460 H   0  0
    2.7600   -3.1840   -0.3420 H   0  0
    2.4840    0.1430   -3.0780 H   0  0
    1.8240   -1.7870    1.4590 H   0  0
    1.5470    1.5490   -1.2850 H   0  0
    1.2230    2.6760    0.3690 H   0  0
    0.2930    2.5920    1.8610 H   0  0
    0.6460   -0.6910    2.6640 H   0  0
    0.5450    0.9730    3.2320 H   0  0
   -0.0590    3.2150   -1.4770 H   0  0
   -1.7230    0.6540    1.5660 H   0  0
    2.3300   -1.8770    3.7250 H   0  0
    3.0080    2.2460    2.6540 H   0  0
   -2.1470    3.0040   -2.7930 H   0  0
   -3.8090    0.4470    0.2480 H   0  0
    4.6500   -2.0290    4.5920 H   0  0
    5.3260    2.0860    3.5220 H   0  0
    6.1500   -0.0490    4.4900 H   0  0
   -6.8300    1.2930   -2.0650 H   0  0
   -3.0260   -0.7230   -2.0650 H   0  0
   -7.9920   -0.9000   -2.0650 H   0  0
   -4.1880   -2.9160   -2.0650 H   0  0
   -6.6720   -3.0060   -2.0650 H   0  0
  1  2  2  0
  2  3  1  0
  2  4  1  0
  4  5  2  0
  4  6  1  0
  5  7  1  0
  6  8  2  0
  7  9  2  0
  9 10  1  0
 10 11  1  0
 10 12  1  0
 11 13  1  0
 12 14  1  0
 13 15  2  0
 13 16  1  0
 14 17  2  0
 14 18  1  0
 15 19  1  0
 16 20  2  0
 17 21  1  0
 18 22  2  0
 19 23  2  0
 21 24  2  0
 23 25  1  0
 25 26  1  0
 26 27  2  0
 26 28  1  0
 27 29  1  0
 28 30  2  0
 29 31  2  0
  8  9  1  0
 20 23  1  0
 22 24  1  0
 30 31  1  0
  3 32  1  0
  5 33  1  0
  6 34  1  0
  7 35  1  0
  8 36  1  0
 11 37  1  0
 11 38  1  0
 12 39  1  0
 12 40  1  0
 15 41  1  0
 16 42  1  0
 17 43  1  0
 18 44  1  0
 19 45  1  0
 20 46  1  0
 21 47  1  0
 22 48  1  0
 24 49  1  0
 27 50  1  0
 28 51  1  0
 29 52  1  0
 30 53  1  0
 31 54  1  0
M  END
> <Name>
CHEMBL2087281

> <IC50 nM>
9000

> <Molecule_ChEMBL_ID>
CHEMBL2087281

> <Smiles>
O=C(O)c1ccc(N(Cc2ccccc2)Cc2ccc(Oc3ccccc3)cc2)cc1

$$$$
CHEMBL194745
  SciTegic08162514313D

 50 52  0  0  1  0            999 V2000
    2.9530    3.2970    3.0840 F   0  0
    2.0120    2.4160    2.7560 C   0  0
    2.3670    1.1020    2.4040 C   0  0
    0.6580    2.7990    2.7620 C   0  0
    1.3710    0.1720    2.0570 C   0  0
   -0.3360    1.8690    2.4140 C   0  0
    0.0160    0.5550    2.0620 C   0  0
    1.7580   -1.2150    1.6850 C   0  0
   -0.9260   -0.3110    1.7380 O   0  0
    2.6600   -1.2360    0.4510 C   0  0
    0.5350   -2.1230    1.5390 C   0  0
    2.5290   -1.4690    2.9820 C   0  0
    1.9040   -1.6110   -0.8240 C   0  0  1  0  0  0
    1.3440   -2.8930   -0.6470 O   0  0
    0.8010   -0.5960   -0.9550 C   0  0
    2.8090   -1.6520   -2.0570 C   0  0
    0.8090    0.4200   -0.3010 O   0  0
   -0.2170   -0.8420   -1.8340 N   0  0
    2.1040   -2.1410   -3.1250 F   0  0
    3.8830   -2.4650   -1.8070 F   0  0
    3.2500   -0.3850   -2.3420 F   0  0
   -1.2130    0.0450   -1.9710 C   0  0
   -2.5590   -0.3960   -2.0860 C   0  0
   -0.9370    1.4380   -2.0040 C   0  0
   -3.6150    0.5350   -2.2330 C   0  0
   -1.9960    2.3650   -2.1510 C   0  0
   -3.3220    1.8850   -2.2620 C   0  0
   -5.1190    0.4160   -2.3810 C   0  0
   -4.5390    2.6560   -2.4160 C   0  0
   -5.5840    1.7970   -2.4860 O   0  0
   -4.5780    3.8650   -2.4710 O   0  0
    3.4060    0.8090    2.4000 H   0  0
    0.3810    3.8070    3.0310 H   0  0
   -1.3730    2.1680    2.4200 H   0  0
   -1.8480   -0.1050    1.9470 H   0  0
    3.5080   -1.9020    0.6050 H   0  0
    3.1700   -0.2810    0.3300 H   0  0
   -0.1110   -2.0760    2.4160 H   0  0
    0.8400   -3.1600    1.4040 H   0  0
   -0.0570   -1.8320    0.6720 H   0  0
    2.0590   -0.9490    3.8160 H   0  0
    2.5700   -2.5350    3.2050 H   0  0
    3.5530   -1.1030    2.8980 H   0  0
    0.7640   -3.0590   -1.4060 H   0  0
   -0.2190   -1.6840   -2.3730 H   0  0
   -2.7970   -1.4490   -2.0630 H   0  0
    0.0760    1.8050   -1.9220 H   0  0
   -1.7890    3.4260   -2.1740 H   0  0
   -5.5680   -0.0510   -1.5160 H   0  0
   -5.3890   -0.1250   -3.2760 H   0  0
  1  2  1  0
  2  3  2  0
  2  4  1  0
  3  5  1  0
  4  6  2  0
  5  7  2  0
  5  8  1  0
  7  9  1  0
  8 10  1  0
  8 11  1  0
  8 12  1  0
 10 13  1  0
 13 14  1  0
 13 15  1  0
 13 16  1  0
 15 17  2  0
 15 18  1  0
 16 19  1  0
 16 20  1  0
 16 21  1  0
 18 22  1  0
 22 23  2  0
 22 24  1  0
 23 25  1  0
 24 26  2  0
 25 27  2  0
 25 28  1  0
 27 29  1  0
 28 30  1  0
 29 31  2  0
  6  7  1  0
 26 27  1  0
 29 30  1  0
  3 32  1  0
  4 33  1  0
  6 34  1  0
  9 35  1  0
 10 36  1  0
 10 37  1  0
 11 38  1  0
 11 39  1  0
 11 40  1  0
 12 41  1  0
 12 42  1  0
 12 43  1  0
 14 44  1  0
 18 45  1  0
 23 46  1  0
 24 47  1  0
 26 48  1  0
 28 49  1  0
 28 50  1  0
M  END
> <Name>
CHEMBL194745

> <IC50 nM>
6

> <Molecule_ChEMBL_ID>
CHEMBL194745

> <Smiles>
CC(C)(CC(O)(C(=O)Nc1ccc2c(c1)COC2=O)C(F)(F)F)c1cc(F)ccc1O

$$$$
CHEMBL372368
  SciTegic08162514313D

 46 48  0  0  1  0            999 V2000
   -6.1120    4.5370   -0.8810 O   0  0
   -6.0720    3.3300   -0.8260 C   0  0
   -7.1170    2.4710   -0.8970 O   0  0
   -4.8560    2.5590   -0.6720 C   0  0
   -6.6530    1.0900   -0.7910 C   0  0
   -5.1510    1.2090   -0.6430 C   0  0
   -3.5290    3.0390   -0.5590 C   0  0
   -4.0920    0.2770   -0.4960 C   0  0
   -2.4710    2.1090   -0.4140 C   0  0
   -2.7460    0.7190   -0.3810 C   0  0
   -1.7500   -0.1680   -0.2420 N   0  0
   -0.7270    0.0840    0.6250 C   0  0
   -0.7130    1.1030    1.2730 O   0  0
    0.3770   -0.9320    0.7580 C   0  0  1  0  0  0
   -0.1540   -2.1390    1.2560 O   0  0
    1.0600   -1.2270   -0.5780 C   0  0
    2.4840   -1.7580   -0.4060 C   0  0
    3.3400   -0.8010    0.3420 C   0  0
    2.5210   -3.1540    0.2170 C   0  0
    3.3070   -1.6640   -1.6910 C   0  0
    3.1410    0.5840    0.1950 C   0  0
    4.3480   -1.2790    1.1970 C   0  0
    3.9510    1.4880    0.9040 C   0  0
    5.1580   -0.3730    1.9040 C   0  0
    4.9590    1.0100    1.7580 C   0  0
   -7.1020    0.6230    0.0760 H   0  0
   -6.9220    0.5470   -1.6860 H   0  0
   -3.3220    4.0980   -0.5840 H   0  0
   -4.3300   -0.7770   -0.4730 H   0  0
   -1.4570    2.4780   -0.3300 H   0  0
   -1.7560   -1.0140   -0.7750 H   0  0
    1.0960   -0.5510    1.4820 H   0  0
   -0.5270   -1.9470    2.1310 H   0  0
    0.4610   -1.9140   -1.1760 H   0  0
    1.0530   -0.3440   -1.2170 H   0  0
    3.4860   -3.6390    0.0700 H   0  0
    1.7560   -3.7930   -0.2230 H   0  0
    2.3340   -3.1020    1.2890 H   0  0
    4.3480   -1.9300   -1.5040 H   0  0
    2.9040   -2.3280   -2.4570 H   0  0
    3.2890   -0.6490   -2.0880 H   0  0
    2.3690    0.9570   -0.4590 H   0  0
    4.5060   -2.3420    1.3140 H   0  0
    3.7990    2.5510    0.7910 H   0  0
    5.9320   -0.7420    2.5620 H   0  0
    5.5820    1.7050    2.3030 H   0  0
  1  2  2  0
  2  3  1  0
  2  4  1  0
  3  5  1  0
  4  6  2  0
  4  7  1  0
  6  8  1  0
  7  9  2  0
  8 10  2  0
 10 11  1  0
 11 12  1  0
 12 13  2  0
 12 14  1  0
 14 15  1  0
 14 16  1  0
 16 17  1  0
 17 18  1  0
 17 19  1  0
 17 20  1  0
 18 21  2  0
 18 22  1  0
 21 23  1  0
 22 24  2  0
 23 25  2  0
  5  6  1  0
  9 10  1  0
 24 25  1  0
  5 26  1  0
  5 27  1  0
  7 28  1  0
  8 29  1  0
  9 30  1  0
 11 31  1  0
 14 32  1  0
 15 33  1  0
 16 34  1  0
 16 35  1  0
 19 36  1  0
 19 37  1  0
 19 38  1  0
 20 39  1  0
 20 40  1  0
 20 41  1  0
 21 42  1  0
 22 43  1  0
 23 44  1  0
 24 45  1  0
 25 46  1  0
M  END
> <Name>
CHEMBL372368

> <IC50 nM>
2000

> <Molecule_ChEMBL_ID>
CHEMBL372368

> <Smiles>
CC(C)(CC(O)C(=O)Nc1ccc2c(c1)COC2=O)c1ccccc1

$$$$
CHEMBL194802
  SciTegic08162514313D

 66 69  0  0  1  0            999 V2000
    2.4650   -4.2130   -2.9530 F   0  0
    3.1000   -3.4000   -2.1110 C   0  0
    2.4040   -2.8160   -1.0370 C   0  0
    4.4650   -3.1270   -2.2950 C   0  0
    3.0760   -1.9570   -0.1480 C   0  0
    5.1350   -2.2700   -1.4060 C   0  0
    4.4450   -1.6820   -0.3300 C   0  0
    2.3300   -1.3460    0.9850 C   0  0
    5.0840   -0.8790    0.4960 O   0  0
    0.8220   -1.3570    0.7380 C   0  0
    2.8610    0.0490    1.3180 C   0  0
    2.7720   -2.4040    1.9960 C   0  0
    0.4000   -0.4260   -0.3980 C   0  0  2  0  0  0
    1.5390   -0.1450   -1.1820 O   0  0
   -0.0720    0.8380    0.2680 C   0  0
   -0.6640   -1.0410   -1.3050 C   0  0
   -0.2230    0.8930    1.4670 O   0  0
   -0.3340    1.9320   -0.5080 N   0  0
   -1.8980   -1.5140   -0.5290 C   0  0
   -0.7580    3.0700    0.0590 C   0  0
   -2.1370   -3.0220   -0.7340 C   0  0
   -3.1430   -0.6970   -0.9180 C   0  0
   -0.2580    4.3240   -0.3870 C   0  0
   -1.7110    3.0410    1.1100 C   0  0
   -3.4000   -3.5080   -0.0060 C   0  0
   -4.4060   -1.1880   -0.1930 C   0  0
   -0.7010    5.5330    0.2090 C   0  0
   -2.1520    4.2480    1.6990 C   0  0
   -4.6330   -2.6900   -0.4120 C   0  0
   -1.6290    5.4770    1.2290 C   0  0
   -0.3850    6.9980   -0.0100 C   0  0
   -1.9430    6.8150    1.6920 C   0  0
   -1.2150    7.6990    0.9670 O   0  0
   -2.7290    7.0630    2.5760 O   0  0
    1.3540   -3.0270   -0.8960 H   0  0
    5.0040   -3.5720   -3.1170 H   0  0
    6.1860   -2.0610   -1.5510 H   0  0
    4.9380   -0.9670    1.4470 H   0  0
    0.2790   -1.1190    1.6520 H   0  0
    0.4710   -2.3730    0.5530 H   0  0
    3.5370    0.0310    2.1740 H   0  0
    2.0410    0.7270    1.5570 H   0  0
    3.4060    0.4670    0.4730 H   0  0
    3.8590   -2.4320    2.0740 H   0  0
    2.3500   -2.1970    2.9790 H   0  0
    2.4340   -3.3930    1.6900 H   0  0
    1.8090    0.7640   -0.9780 H   0  0
   -0.2440   -1.8560   -1.8940 H   0  0
   -0.9490   -0.3460   -2.0940 H   0  0
   -0.2090    1.8830   -1.5000 H   0  0
   -1.7030   -1.3460    0.5290 H   0  0
   -1.2730   -3.5860   -0.3870 H   0  0
   -2.2360   -3.2330   -1.8010 H   0  0
   -2.9800    0.3570   -0.6970 H   0  0
   -3.3030   -0.7640   -1.9960 H   0  0
    0.4690    4.3770   -1.1850 H   0  0
   -2.1090    2.1040    1.4710 H   0  0
   -3.2500   -3.4280    1.0700 H   0  0
   -3.5660   -4.5630   -0.2210 H   0  0
   -4.3130   -0.9860    0.8750 H   0  0
   -5.2730   -0.6270   -0.5390 H   0  0
   -2.8790    4.2290    2.4980 H   0  0
   -5.5040   -3.0220    0.1520 H   0  0
   -4.8570   -2.8710   -1.4630 H   0  0
   -0.6520    7.3180   -1.0060 H   0  0
    0.6580    7.2130    0.1820 H   0  0
  1  2  1  0
  2  3  2  0
  2  4  1  0
  3  5  1  0
  4  6  2  0
  5  7  2  0
  5  8  1  0
  7  9  1  0
  8 10  1  0
  8 11  1  0
  8 12  1  0
 10 13  1  0
 13 14  1  0
 13 15  1  0
 13 16  1  0
 15 17  2  0
 15 18  1  0
 16 19  1  0
 18 20  1  0
 19 21  1  0
 19 22  1  0
 20 23  2  0
 20 24  1  0
 21 25  1  0
 22 26  1  0
 23 27  1  0
 24 28  2  0
 25 29  1  0
 27 30  2  0
 27 31  1  0
 30 32  1  0
 31 33  1  0
 32 34  2  0
  6  7  1  0
 26 29  1  0
 28 30  1  0
 32 33  1  0
  3 35  1  0
  4 36  1  0
  6 37  1  0
  9 38  1  0
 10 39  1  0
 10 40  1  0
 11 41  1  0
 11 42  1  0
 11 43  1  0
 12 44  1  0
 12 45  1  0
 12 46  1  0
 14 47  1  0
 16 48  1  0
 16 49  1  0
 18 50  1  0
 19 51  1  0
 21 52  1  0
 21 53  1  0
 22 54  1  0
 22 55  1  0
 23 56  1  0
 24 57  1  0
 25 58  1  0
 25 59  1  0
 26 60  1  0
 26 61  1  0
 28 62  1  0
 29 63  1  0
 29 64  1  0
 31 65  1  0
 31 66  1  0
M  END
> <Name>
CHEMBL194802

> <IC50 nM>
20

> <Molecule_ChEMBL_ID>
CHEMBL194802

> <Smiles>
CC(C)(CC(O)(CC1CCCCC1)C(=O)Nc1ccc2c(c1)COC2=O)c1cc(F)ccc1O

$$$$
CHEMBL258191
  SciTegic08162514313D

 47 50  0  0  1  0            999 V2000
   -1.0940    2.5080   -0.4860 Cl  0  0
   -0.5180    0.9530    0.0220 C   0  0
   -1.4360   -0.1330    0.1170 C   0  0
    0.8670    0.7400    0.3340 C   0  0
   -2.8650    0.0370   -0.1310 C   0  0
   -0.9870   -1.4240    0.4570 C   0  0
    1.3280   -0.5980    0.5920 C   0  0
    1.8340    1.8940    0.3790 C   0  0  2  0  0  0
   -3.4900   -0.5550   -1.2580 C   0  0
   -3.6550    0.8070    0.7640 C   0  0
    0.3850   -1.6640    0.6800 C   0  0
    2.6560   -0.8650    0.7460 N   0  0
    3.2130    1.5140    0.9550 C   0  0
    1.3180    3.0820    1.2050 C   0  0
   -3.0060   -1.3460   -2.2930 N   0  0
   -4.8340   -0.3930   -1.4900 C   0  0
   -5.0450    0.9710    0.5200 C   0  0
    0.7930   -3.0490    0.9940 C   0  0
    3.7050    0.1440    0.4710 C   0  0
   -4.1000   -1.6450   -3.1410 C   0  0
   -5.6490    0.3690   -0.6170 C   0  0
   -5.2460   -1.0290   -2.6070 C   0  0
    4.9880   -0.2360    1.2170 C   0  0
    3.9860    0.1700   -1.0350 C   0  0
   -1.6860   -2.2440    0.5450 H   0  0
    1.9800    2.2260   -0.6500 H   0  0
   -3.2130    1.2710    1.6350 H   0  0
    2.9610   -1.7760    1.0270 H   0  0
    3.1540    1.5020    2.0470 H   0  0
    3.9430    2.2870    0.7070 H   0  0
    0.8960    3.8500    0.5550 H   0  0
    0.5560    2.7580    1.9120 H   0  0
    2.1290    3.5370    1.7740 H   0  0
   -2.0690   -1.6490   -2.4200 H   0  0
   -5.6470    1.5550    1.1990 H   0  0
    1.3180   -3.1560    1.9430 H   0  0
    1.4470   -3.4240    0.2070 H   0  0
   -0.0900   -3.6900    1.0270 H   0  0
   -4.0240   -2.2480   -4.0350 H   0  0
   -6.7050    0.4940   -0.8010 H   0  0
   -6.2480   -1.0650   -3.0190 H   0  0
    4.8320   -0.2910    2.2950 H   0  0
    5.7750    0.4940    1.0310 H   0  0
    5.3530   -1.2090    0.8830 H   0  0
    3.0880    0.3940   -1.6110 H   0  0
    4.3670   -0.7930   -1.3710 H   0  0
    4.7320    0.9260   -1.2750 H   0  0
  1  2  1  0
  2  3  2  0
  2  4  1  0
  3  5  1  0
  3  6  1  0
  4  7  2  0
  4  8  1  0
  5  9  2  0
  5 10  1  0
  6 11  2  0
  7 12  1  0
  8 13  1  0
  8 14  1  0
  9 15  1  0
  9 16  1  0
 10 17  2  0
 11 18  1  0
 12 19  1  0
 15 20  1  0
 16 21  2  0
 16 22  1  0
 19 23  1  0
 19 24  1  0
  7 11  1  0
 13 19  1  0
 17 21  1  0
 20 22  2  0
  6 25  1  0
  8 26  1  0
 10 27  1  0
 12 28  1  0
 13 29  1  0
 13 30  1  0
 14 31  1  0
 14 32  1  0
 14 33  1  0
 15 34  1  0
 17 35  1  0
 18 36  1  0
 18 37  1  0
 18 38  1  0
 20 39  1  0
 21 40  1  0
 22 41  1  0
 23 42  1  0
 23 43  1  0
 23 44  1  0
 24 45  1  0
 24 46  1  0
 24 47  1  0
M  END
> <Name>
CHEMBL258191

> <IC50 nM>
12

> <Molecule_ChEMBL_ID>
CHEMBL258191

> <Smiles>
Cc1cc(-c2cccc3cc[nH]c23)c(Cl)c2c1NC(C)(C)CC2C

$$$$
CHEMBL384467
  SciTegic08162514313D

 57 60  0  0  1  0            999 V2000
   -1.6090    1.1620   -0.8810 F   0  0
   -1.4140    0.4670    0.2970 C   0  0  2  0  0  0
   -2.8380    0.2380    0.9060 C   0  0  2  0  0  0
   -0.4390    1.3750    1.1040 C   0  0  1  0  0  0
   -0.7480   -0.9060   -0.0290 C   0  0  2  0  0  0
   -3.7090   -0.4120   -0.1740 C   0  0
   -3.4750    1.5080    1.4650 C   0  0
   -2.7830   -0.7400    2.0880 C   0  0
   -0.2750    0.8910    2.4220 O   0  0
    0.9470    1.5080    0.4180 C   0  0
    0.5470   -0.6450   -0.8180 C   0  0  1  0  0  0
   -1.7050   -1.9320   -0.6870 C   0  0
   -5.0260   -0.1450   -0.2830 C   0  0
   -3.0530   -1.3610   -1.1580 C   0  0
   -4.7850    1.7790    1.3180 C   0  0
    1.5610    0.1460    0.0330 C   0  0  1  0  0  0
    1.3710   -1.8480   -1.2790 C   0  0
   -5.6580    0.8930    0.5410 C   0  0
    2.7910    0.1450   -0.9060 C   0  0  1  0  0  0
    1.9550   -0.6390    1.2970 C   0  0
    2.8180   -1.3300   -1.3810 C   0  0  2  0  0  0
   -6.8600    1.0210    0.5660 O   0  0
    2.5740    1.0100   -2.0120 O   0  0
    4.0800    0.5880   -0.2540 C   0  0
    3.4120   -1.5720   -2.7700 C   0  0
    5.0230   -0.1600   -0.1660 O   0  0
    4.1520    1.9920    0.2830 C   0  0
    5.4400    2.5200    0.0530 O   0  0
   -0.8540    2.3770    1.2050 H   0  0
   -0.4570   -1.3650    0.9160 H   0  0
   -2.8710    2.2210    2.0060 H   0  0
   -3.7790   -1.0020    2.4430 H   0  0
   -2.2340   -0.3050    2.9240 H   0  0
   -2.2770   -1.6620    1.8010 H   0  0
   -0.7850    1.4730    3.0080 H   0  0
    0.8160    2.1170   -0.4770 H   0  0
    1.6370    2.0680    1.0510 H   0  0
    0.2890   -0.0840   -1.7050 H   0  0
   -1.9180   -2.7170    0.0430 H   0  0
   -1.2230   -2.4450   -1.5180 H   0  0
   -5.6290   -0.6860   -1.0000 H   0  0
   -2.8970   -0.8260   -2.0960 H   0  0
   -3.7290   -2.1860   -1.3890 H   0  0
   -5.2010    2.6660    1.7770 H   0  0
    1.3110   -2.6470   -0.5550 H   0  0
    0.9980   -2.2380   -2.2150 H   0  0
    1.0880   -0.8790    1.9120 H   0  0
    2.6480   -0.0610    1.9080 H   0  0
    2.4450   -1.5740    1.0310 H   0  0
    3.4080   -1.9080   -0.6820 H   0  0
    3.3670    0.9690   -2.5680 H   0  0
    3.4690   -2.6390   -2.9840 H   0  0
    2.8110   -1.0860   -3.5370 H   0  0
    4.4220   -1.1660   -2.8320 H   0  0
    3.9770    1.9860    1.3590 H   0  0
    3.4280    2.6250   -0.2320 H   0  0
    5.4470    3.4200    0.4100 H   0  0
  2  1  1  0
  2  3  1  0
  2  4  1  0
  2  5  1  0
  3  6  1  0
  3  7  1  0
  3  8  1  0
  4  9  1  0
  4 10  1  0
  5 11  1  0
  5 12  1  0
  6 13  2  0
  6 14  1  0
  7 15  2  0
 10 16  1  0
 11 17  1  0
 13 18  1  0
 16 19  1  0
 16 20  1  0
 17 21  1  0
 18 22  2  0
 19 23  1  0
 19 24  1  0
 21 25  1  0
 24 26  2  0
 24 27  1  0
 27 28  1  0
 11 16  1  0
 12 14  1  0
 15 18  1  0
 19 21  1  0
  4 29  1  0
  5 30  1  0
  7 31  1  0
  8 32  1  0
  8 33  1  0
  8 34  1  0
  9 35  1  0
 10 36  1  0
 10 37  1  0
 11 38  1  0
 12 39  1  0
 12 40  1  0
 13 41  1  0
 14 42  1  0
 14 43  1  0
 15 44  1  0
 17 45  1  0
 17 46  1  0
 20 47  1  0
 20 48  1  0
 20 49  1  0
 21 50  1  0
 23 51  1  0
 25 52  1  0
 25 53  1  0
 25 54  1  0
 27 55  1  0
 27 56  1  0
 28 57  1  0
M  END
> <Name>
CHEMBL384467

> <IC50 nM>
1.4

> <Molecule_ChEMBL_ID>
CHEMBL384467

> <Smiles>
C[C@@H]1C[C@H]2[C@@H]3CCC4=CC(=O)C=C[C@]4(C)[C@@]3(F)[C@@H](O)C[C@]2(C)[C@@]1(O)C(=O)CO

$$$$
CHEMBL312399
  SciTegic08162514313D

 57 61  0  0  1  0            999 V2000
   -5.0610    7.3970   -0.3540 F   0  0
   -4.6620    6.1270   -0.3190 C   0  0
   -5.2600    5.2290    0.5840 C   0  0
   -3.6470    5.6840   -1.1820 C   0  0
   -4.8420    3.8870    0.6210 C   0  0
   -3.2270    4.3420   -1.1450 C   0  0
   -3.8240    3.4400   -0.2420 C   0  0
   -3.4180    2.1450   -0.2050 N   0  0
   -4.2560    1.0740   -0.1470 N   0  0
   -2.1290    1.7150   -0.2250 C   0  0
   -3.6000   -0.1170   -0.1110 C   0  0
   -2.2830    0.3420   -0.1510 C   0  0
   -0.8380    2.4180   -0.3070 C   0  0
   -1.0350   -0.5250   -0.0880 C   0  0
    0.2910    1.6950   -0.4860 C   0  0
    0.2540    0.1640   -0.6580 C   0  0  1  0  0  0
    1.6250    2.4140   -0.5650 C   0  0
    1.4920   -0.5080    0.0000 C   0  0  1  0  0  0
    0.2950   -0.0620   -2.1760 C   0  0
    2.7730    1.6560    0.1070 C   0  0
    1.5800   -2.0040   -0.3340 C   0  0  1  0  0  0
    2.8120    0.1970   -0.3420 C   0  0
    2.1890   -2.1390   -1.5980 O   0  0
    2.4080   -2.7870    0.6850 C   0  0
    2.3520   -4.2970    0.4550 C   0  0
    3.1680   -5.0060    1.5290 C   0  0
    2.5100   -5.4020    2.8340 C   0  0
    2.9040   -6.4650    1.8320 C   0  0
   -6.0430    5.5670    1.2480 H   0  0
   -3.1840    6.3690   -1.8750 H   0  0
   -5.3150    3.2110    1.3220 H   0  0
   -2.4430    4.0200   -1.8170 H   0  0
   -4.0240   -1.1110   -0.0630 H   0  0
   -0.8010    3.4940   -0.2290 H   0  0
   -1.2210   -1.4750   -0.5920 H   0  0
   -0.8930   -0.7690    0.9670 H   0  0
    1.8670    2.5670   -1.6170 H   0  0
    1.5510    3.4100   -0.1250 H   0  0
    1.3730   -0.4350    1.0820 H   0  0
   -0.4960    0.5020   -2.6720 H   0  0
    1.2580    0.2440   -2.5840 H   0  0
    0.1500   -1.1150   -2.4140 H   0  0
    2.6560    1.6990    1.1910 H   0  0
    3.7210    2.1450   -0.1210 H   0  0
    0.5700   -2.4060   -0.4010 H   0  0
    3.0040    0.1410   -1.4140 H   0  0
    3.6450   -0.3100    0.1500 H   0  0
    1.8460   -2.9530   -1.9940 H   0  0
    2.1030   -2.5390    1.7010 H   0  0
    3.4410   -2.4370    0.6910 H   0  0
    1.3200   -4.6480    0.4610 H   0  0
    2.7210   -4.5510   -0.5390 H   0  0
    4.2030   -4.6680    1.5780 H   0  0
    3.1020   -5.3160    3.7440 H   0  0
    1.4470   -5.1870    2.9570 H   0  0
    3.7620   -7.0940    2.0700 H   0  0
    2.1070   -6.9670    1.2810 H   0  0
  1  2  1  0
  2  3  2  0
  2  4  1  0
  3  5  1  0
  4  6  2  0
  5  7  2  0
  7  8  1  0
  8  9  1  0
  8 10  1  0
  9 11  2  0
 10 12  2  0
 10 13  1  0
 12 14  1  0
 13 15  2  0
 14 16  1  0
 15 17  1  0
 16 18  1  0
 16 19  1  0
 17 20  1  0
 18 21  1  0
 18 22  1  0
 21 23  1  0
 21 24  1  0
 24 25  1  0
 25 26  1  0
 26 27  1  0
 26 28  1  0
  6  7  1  0
 11 12  1  0
 15 16  1  0
 20 22  1  0
 27 28  1  0
  3 29  1  0
  4 30  1  0
  5 31  1  0
  6 32  1  0
 11 33  1  0
 13 34  1  0
 14 35  1  0
 14 36  1  0
 17 37  1  0
 17 38  1  0
 18 39  1  0
 19 40  1  0
 19 41  1  0
 19 42  1  0
 20 43  1  0
 20 44  1  0
 21 45  1  0
 22 46  1  0
 22 47  1  0
 23 48  1  0
 24 49  1  0
 24 50  1  0
 25 51  1  0
 25 52  1  0
 26 53  1  0
 27 54  1  0
 27 55  1  0
 28 56  1  0
 28 57  1  0
M  END
> <Name>
CHEMBL312399

> <IC50 nM>
1.5

> <Molecule_ChEMBL_ID>
CHEMBL312399

> <Smiles>
C[C@]12Cc3cnn(-c4ccc(F)cc4)c3C=C1CCC[C@@H]2[C@@H](O)CCC1CC1

$$$$
CHEMBL1835807
  SciTegic08162514313D

 41 43  0  0  0  0            999 V2000
   -6.2810    1.6820    0.1800 O   0  0
   -5.2780    1.0270    0.0120 C   0  0
   -4.0470    1.5160    0.2790 O   0  0
   -5.4120   -0.3530   -0.5060 C   0  0
   -2.9160    0.7970    0.0960 C   0  0
   -4.3150   -1.1070   -0.7070 C   0  0
   -2.9830   -0.5290   -0.3980 C   0  0
   -1.6580    1.3650    0.3960 C   0  0
   -1.8030   -1.2830   -0.5940 C   0  0
   -0.4630    0.6210    0.2090 C   0  0
   -0.5370   -0.7170   -0.2930 C   0  0
    0.7110    1.2090    0.5100 N   0  0
    0.6560   -1.5350   -0.5100 C   0  0
    1.7070    0.4860    1.3140 C   0  0
    1.0170    2.5700    0.0490 C   0  0
    1.6010   -1.1580   -1.4820 C   0  0
    0.8610   -2.6990    0.2560 C   0  0
    2.2420    1.3650    2.4430 C   0  0
    2.3140    2.5960   -0.7580 C   0  0
    2.7460   -1.9470   -1.6900 C   0  0
    2.0080   -3.4840    0.0470 C   0  0
    2.9510   -3.1070   -0.9260 C   0  0
   -6.3890   -0.7580   -0.7250 H   0  0
   -4.4010   -2.1170   -1.0860 H   0  0
   -1.6270    2.3790    0.7730 H   0  0
   -1.8750   -2.2930   -0.9730 H   0  0
    2.5190    0.1560    0.6640 H   0  0
    1.2580   -0.4220    1.7130 H   0  0
    0.1840    2.9430   -0.5470 H   0  0
    1.0880    3.2330    0.9120 H   0  0
    1.4590   -0.2690   -2.0780 H   0  0
    0.1440   -3.0020    1.0080 H   0  0
    2.8610    0.8010    3.1410 H   0  0
    1.4220    1.8070    3.0100 H   0  0
    2.8480    2.1800    2.0450 H   0  0
    2.5290    3.6060   -1.1090 H   0  0
    3.1520    2.2440   -0.1540 H   0  0
    2.2380    1.9470   -1.6310 H   0  0
    3.4710   -1.6580   -2.4380 H   0  0
    2.1640   -4.3770    0.6350 H   0  0
    3.8320   -3.7130   -1.0860 H   0  0
  1  2  2  0
  2  3  1  0
  2  4  1  0
  3  5  1  0
  4  6  2  0
  5  7  2  0
  5  8  1  0
  7  9  1  0
  8 10  2  0
  9 11  2  0
 10 12  1  0
 11 13  1  0
 12 14  1  0
 12 15  1  0
 13 16  2  0
 13 17  1  0
 14 18  1  0
 15 19  1  0
 16 20  1  0
 17 21  2  0
 20 22  2  0
  6  7  1  0
 10 11  1  0
 21 22  1  0
  4 23  1  0
  6 24  1  0
  8 25  1  0
  9 26  1  0
 14 27  1  0
 14 28  1  0
 15 29  1  0
 15 30  1  0
 16 31  1  0
 17 32  1  0
 18 33  1  0
 18 34  1  0
 18 35  1  0
 19 36  1  0
 19 37  1  0
 19 38  1  0
 20 39  1  0
 21 40  1  0
 22 41  1  0
M  END
> <Name>
CHEMBL1835807

> <IC50 nM>
3540

> <Molecule_ChEMBL_ID>
CHEMBL1835807

> <Smiles>
CCN(CC)c1cc2oc(=O)ccc2cc1-c1ccccc1

$$$$
CHEMBL3138340
  SciTegic08162514313D

145152  0  0  1  0            999 V2000
   -7.8010    0.3340   -9.0160 S   0  0
   -7.7930    0.4490  -10.4630 O   0  0
   -7.8320   -1.0430   -8.5510 O   0  0
   -6.4300    1.0000   -8.4650 N   0  0
   -9.2330    1.1910   -8.3730 C   0  0
   -5.2190    0.4350   -8.7770 C   0  0
   -4.0120    0.9340   -8.2310 C   0  0
   -5.1900   -0.6600   -9.6620 C   0  0
   -2.7830    0.3240   -8.5780 C   0  0
   -4.0370    2.0980   -7.2910 C   0  0
   -3.9670   -1.2600  -10.0020 C   0  0
   -1.5920    0.7790   -8.0670 N   0  0
   -2.7680   -0.7720   -9.4610 C   0  0
   -1.1950    2.1800   -8.2680 C   0  0
   -0.6990   -0.1150   -7.3170 C   0  0
   -0.0760    2.2970   -9.2420 C   0  0
   -1.4530   -1.2150   -6.6580 C   0  0
   -0.3360    2.5960  -10.5940 C   0  0
    1.2480    2.1090   -8.8090 C   0  0
   -2.1270   -0.9810   -5.4490 C   0  0
   -1.4900   -2.4920   -7.2460 C   0  0
   -1.5860    2.7730  -11.0220 F   0  0
    0.7280    2.7070  -11.5040 C   0  0
    2.3110    2.2210   -9.7190 C   0  0
   -2.8400   -2.0200   -4.8280 C   0  0
   -2.2030   -3.5310   -6.6230 C   0  0
    2.0530    2.5210  -11.0690 C   0  0
   -2.8790   -3.2990   -5.4120 C   0  0
    3.0610    2.6290  -11.9320 F   0  0
   -3.5470   -4.2740   -4.8280 O   0  0
   -3.5240   -4.3380   -3.5140 C   0  0
   -4.6760   -4.7250   -2.8030 C   0  0
   -2.3480   -4.0220   -2.8110 C   0  0
   -4.6520   -4.7930   -1.4000 C   0  0
   -2.3220   -4.0900   -1.4060 C   0  0
   -3.4750   -4.4770   -0.7010 C   0  0
   -3.4470   -4.5490    0.7830 C   0  0
   -3.8300   -3.2130    1.4200 C   0  0
   -3.7580   -3.2500    2.9220 C   0  0
   -3.3910   -4.2460    3.5040 O   0  0
   -4.1130   -2.1330    3.6250 N   0  0
   -4.0470   -2.1520    5.0940 C   0  0
   -2.6210   -1.9000    5.5800 C   0  0
   -2.2870   -0.5610    5.2950 O   0  0
   -1.0290   -0.1760    5.8150 C   0  0  1  0  0  0
    0.0920   -0.7750    4.9430 C   0  0
   -0.9590    1.3630    5.8990 C   0  0
    0.4200    0.0980    3.7110 C   0  0  1  0  0  0
    0.4450    1.8750    5.5550 C   0  0
    0.8380    1.5640    4.0880 C   0  0  1  0  0  0
    1.4470   -0.5940    2.7930 C   0  0
    2.3630    1.7890    3.8440 C   0  0  2  0  0  0
    0.0700    2.5390    3.1780 C   0  0
    2.8730   -0.6470    3.3910 C   0  0  1  0  0  0
    3.1930    0.5680    4.3030 C   0  0  1  0  0  0
    2.9300    3.1580    4.3090 C   0  0
    3.0160   -1.8460    4.1290 O   0  0
    4.6820    0.9770    4.2970 C   0  0  1  0  0  0
    3.8750    3.1110    5.5270 C   0  0  2  0  0  0
    4.9630    2.0020    5.4200 C   0  0  1  0  0  0
    5.6880   -0.1370    4.6110 C   0  0
    3.1020    3.0080    6.7070 O   0  0
    5.1410    1.0680    6.6450 C   0  0  1  0  0  0
    6.3180    2.6390    5.0800 C   0  0
    5.7030   -0.2580    6.1270 C   0  0
    5.9980    1.6620    7.7620 C   0  0  2  0  0  0
    6.1500    0.6390    8.8870 C   0  0
    5.3770    2.9770    8.2360 C   0  0
    7.4770    0.7770    9.6350 C   0  0
    7.7990   -0.4410   10.4590 C   0  0
    7.5680   -0.4690   11.6470 O   0  0
    8.3440   -1.4510    9.7870 O   0  0
   -6.4670    1.8240   -7.8990 H   0  0
   -8.9960    2.0210   -7.7070 H   0  0
   -9.8600    0.4900   -7.8240 H   0  0
   -9.8210    1.5880   -9.2010 H   0  0
   -6.1000   -1.0550  -10.0900 H   0  0
   -3.1110    2.2420   -6.7330 H   0  0
   -4.8460    1.9670   -6.5720 H   0  0
   -4.2330    3.0120   -7.8520 H   0  0
   -3.9490   -2.1020  -10.6800 H   0  0
   -1.8380   -1.2500   -9.7380 H   0  0
   -0.8890    2.6050   -7.3110 H   0  0
   -2.0530    2.7480   -8.6270 H   0  0
    0.0390   -0.5390   -7.9980 H   0  0
   -0.1660    0.4610   -6.5630 H   0  0
    1.4530    1.8790   -7.7720 H   0  0
   -2.1020    0.0000   -4.9920 H   0  0
   -0.9750   -2.6800   -8.1760 H   0  0
    0.5310    2.9370  -12.5410 H   0  0
    3.3260    2.0740   -9.3790 H   0  0
   -3.3580   -1.8340   -3.8970 H   0  0
   -2.2310   -4.5100   -7.0780 H   0  0
   -5.5820   -4.9690   -3.3360 H   0  0
   -1.4590   -3.7250   -3.3500 H   0  0
   -5.5410   -5.0920   -0.8630 H   0  0
   -1.4140   -3.8460   -0.8750 H   0  0
   -4.1150   -5.3420    1.1210 H   0  0
   -2.4570   -4.8630    1.1150 H   0  0
   -4.8540   -3.0120    1.1040 H   0  0
   -3.1990   -2.4100    1.0370 H   0  0
   -4.4160   -1.3110    3.1430 H   0  0
   -4.7310   -1.4020    5.4920 H   0  0
   -4.4140   -3.1130    5.4550 H   0  0
   -2.5510   -2.0450    6.6580 H   0  0
   -1.9140   -2.5450    5.0570 H   0  0
   -0.9590   -0.6040    6.8170 H   0  0
    0.9840   -0.8710    5.5590 H   0  0
   -0.1540   -1.7950    4.6370 H   0  0
   -1.2440    1.6910    6.8990 H   0  0
   -1.6700    1.8340    5.2150 H   0  0
   -0.5120    0.1410    3.1450 H   0  0
    0.4980    2.9470    5.7500 H   0  0
    1.1460    1.4060    6.2420 H   0  0
    1.4880   -0.0310    1.8590 H   0  0
    1.0980   -1.5860    2.5020 H   0  0
    2.4820    1.8240    2.7580 H   0  0
   -1.0080    2.3950    3.2440 H   0  0
    0.3610    2.4040    2.1350 H   0  0
    0.2850    3.5720    3.4510 H   0  0
    3.5860   -0.6990    2.5680 H   0  0
    2.8980    0.3360    5.3260 H   0  0
    3.5120    3.5680    3.4820 H   0  0
    2.1310    3.8850    4.4610 H   0  0
    3.5700   -1.6450    4.8990 H   0  0
    4.9120    1.3870    3.3220 H   0  0
    4.3550    4.0860    5.6150 H   0  0
    5.4690   -1.0720    4.1230 H   0  0
    6.6700    0.1540    4.2680 H   0  0
    2.5800    3.8220    6.7790 H   0  0
    4.1780    0.8320    7.0700 H   0  0
    7.1350    1.9220    5.1520 H   0  0
    6.5390    3.4630    5.7620 H   0  0
    6.3140    3.0390    4.0660 H   0  0
    5.0720   -1.0760    6.4470 H   0  0
    6.7010   -0.4650    6.4880 H   0  0
    6.9570    1.8440    7.2740 H   0  0
    6.0250   -0.3750    8.5060 H   0  0
    5.3090    0.7010    9.5780 H   0  0
    5.9820    3.4260    9.0240 H   0  0
    5.2890    3.6820    7.4100 H   0  0
    4.3790    2.8070    8.6390 H   0  0
    7.3670    1.6440   10.2830 H   0  0
    8.2910    0.9800    8.9400 H   0  0
    8.5720   -2.2640   10.2580 H   0  0
  1  2  2  0
  1  3  2  0
  1  4  1  0
  1  5  1  0
  4  6  1  0
  6  7  2  0
  6  8  1  0
  7  9  1  0
  7 10  1  0
  8 11  2  0
  9 12  1  0
  9 13  2  0
 12 14  1  0
 12 15  1  0
 14 16  1  0
 15 17  1  0
 16 18  2  0
 16 19  1  0
 17 20  2  0
 17 21  1  0
 18 22  1  0
 18 23  1  0
 19 24  2  0
 20 25  1  0
 21 26  2  0
 23 27  2  0
 25 28  2  0
 27 29  1  0
 28 30  1  0
 30 31  1  0
 31 32  2  0
 31 33  1  0
 32 34  1  0
 33 35  2  0
 34 36  2  0
 36 37  1  0
 37 38  1  0
 38 39  1  0
 39 40  2  0
 39 41  1  0
 41 42  1  0
 42 43  1  0
 43 44  1  0
 45 44  1  0
 45 46  1  0
 45 47  1  0
 48 46  1  0
 47 49  1  0
 48 50  1  0
 48 51  1  0
 50 52  1  0
 50 53  1  0
 51 54  1  0
 55 52  1  0
 52 56  1  0
 54 57  1  0
 55 58  1  0
 56 59  1  0
 58 60  1  0
 58 61  1  0
 59 62  1  0
 60 63  1  0
 60 64  1  0
 61 65  1  0
 63 66  1  0
 66 67  1  0
 66 68  1  0
 67 69  1  0
 69 70  1  0
 70 71  2  0
 70 72  1  0
 11 13  1  0
 24 27  1  0
 26 28  1  0
 35 36  1  0
 49 50  1  0
 54 55  1  0
 59 60  1  0
 63 65  1  0
  4 73  1  0
  5 74  1  0
  5 75  1  0
  5 76  1  0
  8 77  1  0
 10 78  1  0
 10 79  1  0
 10 80  1  0
 11 81  1  0
 13 82  1  0
 14 83  1  0
 14 84  1  0
 15 85  1  0
 15 86  1  0
 19 87  1  0
 20 88  1  0
 21 89  1  0
 23 90  1  0
 24 91  1  0
 25 92  1  0
 26 93  1  0
 32 94  1  0
 33 95  1  0
 34 96  1  0
 35 97  1  0
 37 98  1  0
 37 99  1  0
 38100  1  0
 38101  1  0
 41102  1  0
 42103  1  0
 42104  1  0
 43105  1  0
 43106  1  0
 45107  1  0
 46108  1  0
 46109  1  0
 47110  1  0
 47111  1  0
 48112  1  0
 49113  1  0
 49114  1  0
 51115  1  0
 51116  1  0
 52117  1  0
 53118  1  0
 53119  1  0
 53120  1  0
 54121  1  0
 55122  1  0
 56123  1  0
 56124  1  0
 57125  1  0
 58126  1  0
 59127  1  0
 61128  1  0
 61129  1  0
 62130  1  0
 63131  1  0
 64132  1  0
 64133  1  0
 64134  1  0
 65135  1  0
 65136  1  0
 66137  1  0
 67138  1  0
 67139  1  0
 68140  1  0
 68141  1  0
 68142  1  0
 69143  1  0
 69144  1  0
 72145  1  0
M  END
> <Name>
CHEMBL3138340

> <IC50 nM>
270

> <Molecule_ChEMBL_ID>
CHEMBL3138340

> <Smiles>
Cc1c(NS(C)(=O)=O)cccc1N(Cc1ccc(Oc2ccc(CCC(=O)NCCO[C@@H]3CC[C@]4(C)[C@H](C3)C[C@H](O)[C@@H]3[C@@H]4C[C@@H](O)[C@]4(C)[C@H]3CC[C@H]4[C@@H](C)CCC(=O)O)cc2)cc1)Cc1ccc(F)cc1F

$$$$
CHEMBL306491
  SciTegic08162514313D

 55 57  0  0  0  0            999 V2000
    0.8870   -2.4060    3.3610 S   0  0
   -0.2150   -1.8340    4.1150 O   0  0
    0.5960   -3.7320    2.8420 O   0  0
    1.1660   -1.4380    2.0940 N   0  0
    2.3220   -2.5060    4.4220 C   0  0
    0.1890   -1.2400    1.1500 C   0  0
    0.4140   -0.4200    0.0200 C   0  0
   -1.0570   -1.8730    1.3220 C   0  0
   -0.6210   -0.2420   -0.9320 C   0  0
    1.7340    0.2560   -0.1700 C   0  0
   -2.0780   -1.6930    0.3770 C   0  0
   -0.4410    0.5470   -2.0410 N   0  0
   -1.8610   -0.8810   -0.7460 C   0  0
   -0.2910    2.0040   -1.9160 C   0  0
   -0.3960   -0.0640   -3.3770 C   0  0
   -0.9610    2.5220   -0.6950 C   0  0
    0.3930   -1.3240   -3.3770 C   0  0
   -0.1930    3.0780    0.3460 C   0  0
   -2.3590    2.4550   -0.5760 C   0  0
   -0.2640   -2.5660   -3.3770 C   0  0
    1.7990   -1.2730   -3.3770 C   0  0
   -0.8240    3.5680    1.5040 C   0  0
   -2.9900    2.9450    0.5800 C   0  0
    0.4820   -3.7580   -3.3770 C   0  0
    2.5450   -2.4650   -3.3770 C   0  0
   -0.1050    4.0900    2.4790 O   0  0
   -2.2230    3.5000    1.6170 C   0  0
    1.8870   -3.7070   -3.3770 C   0  0
   -0.7930    4.6270    3.5980 C   0  0
    2.0510   -0.9800    2.0000 H   0  0
    2.1930   -3.1470    5.2930 H   0  0
    2.5820   -1.5080    4.7770 H   0  0
    3.1700   -2.8870    3.8520 H   0  0
   -1.2460   -2.5040    2.1800 H   0  0
    1.8630    0.7250   -1.1450 H   0  0
    2.5350   -0.4710   -0.0410 H   0  0
    1.8590    1.0290    0.5900 H   0  0
   -3.0310   -2.1820    0.5140 H   0  0
   -2.6620   -0.7580   -1.4630 H   0  0
    0.7700    2.2540   -1.8830 H   0  0
   -0.7190    2.4840   -2.7970 H   0  0
    0.0470    0.6430   -4.0780 H   0  0
   -1.4120   -0.2710   -3.7090 H   0  0
    0.8810    3.1310    0.2580 H   0  0
   -2.9530    2.0290   -1.3710 H   0  0
   -1.3440   -2.6130   -3.3770 H   0  0
    2.3110   -0.3220   -3.3770 H   0  0
   -4.0660    2.8950    0.6700 H   0  0
   -0.0230   -4.7110   -3.3770 H   0  0
    3.6250   -2.4260   -3.3770 H   0  0
   -2.7130    3.8750    2.5040 H   0  0
    2.4610   -4.6210   -3.3770 H   0  0
   -0.0530    4.9570    4.3260 H   0  0
   -1.4900    5.3850    3.2400 H   0  0
   -1.3770    3.8260    4.0570 H   0  0
  1  2  2  0
  1  3  2  0
  1  4  1  0
  1  5  1  0
  4  6  1  0
  6  7  2  0
  6  8  1  0
  7  9  1  0
  7 10  1  0
  8 11  2  0
  9 12  1  0
  9 13  2  0
 12 14  1  0
 12 15  1  0
 14 16  1  0
 15 17  1  0
 16 18  2  0
 16 19  1  0
 17 20  2  0
 17 21  1  0
 18 22  1  0
 19 23  2  0
 20 24  1  0
 21 25  2  0
 22 26  1  0
 22 27  2  0
 24 28  2  0
 26 29  1  0
 11 13  1  0
 23 27  1  0
 25 28  1  0
  4 30  1  0
  5 31  1  0
  5 32  1  0
  5 33  1  0
  8 34  1  0
 10 35  1  0
 10 36  1  0
 10 37  1  0
 11 38  1  0
 13 39  1  0
 14 40  1  0
 14 41  1  0
 15 42  1  0
 15 43  1  0
 18 44  1  0
 19 45  1  0
 20 46  1  0
 21 47  1  0
 23 48  1  0
 24 49  1  0
 25 50  1  0
 27 51  1  0
 28 52  1  0
 29 53  1  0
 29 54  1  0
 29 55  1  0
M  END
> <Name>
CHEMBL306491

> <IC50 nM>
250

> <Molecule_ChEMBL_ID>
CHEMBL306491

> <Smiles>
COc1cccc(CN(Cc2ccccc2)c2cccc(NS(C)(=O)=O)c2C)c1

$$$$
CHEMBL511982
  SciTegic08162514313D

 42 44  0  0  1  0            999 V2000
   -4.5900   -0.0350   -3.4530 O   0  0
   -3.4840    0.1870   -2.7270 C   0  0
   -3.5530    0.1830   -1.3160 C   0  0
   -2.2500    0.4300   -3.3630 C   0  0
   -2.3890    0.3900   -0.5290 C   0  0
   -1.0860    0.6520   -2.5940 C   0  0
   -1.1270    0.6170   -1.1700 C   0  0
   -2.5330    0.3550    0.9510 C   0  0
    0.1290    0.8340   -0.3690 C   0  0  1  0  0  0
   -1.3050    0.8490    1.7250 C   0  0
   -0.0290    0.2950    1.0840 C   0  0  2  0  0  0
    1.3790    0.1330   -0.9840 C   0  0
    0.3850    2.3530   -0.3360 C   0  0
    1.2270    0.5410    1.9490 C   0  0
    2.6600    0.3300   -0.1420 C   0  0
    2.4900   -0.1020    1.3300 C   0  0  1  0  0  0
    3.6150    0.3550    2.0510 O   0  0
    2.4430   -1.5610    1.4400 C   0  0
    2.4080   -2.7480    1.5290 C   0  0
    2.3730   -4.2030    1.6250 C   0  0
   -5.4280   -0.1990   -3.0020 H   0  0
   -4.5060    0.0190   -0.8320 H   0  0
   -2.1910    0.4430   -4.4430 H   0  0
   -0.1640    0.8490   -3.1150 H   0  0
   -3.4060    0.9370    1.2540 H   0  0
   -2.7400   -0.6780    1.2400 H   0  0
   -1.2730    1.9350    1.7270 H   0  0
   -1.3810    0.5370    2.7620 H   0  0
   -0.1600   -0.7910    1.0370 H   0  0
    1.1970   -0.9380   -1.1150 H   0  0
    1.5900    0.5170   -1.9820 H   0  0
    0.5860    2.7520   -1.3300 H   0  0
    1.2420    2.5860    0.2950 H   0  0
   -0.4780    2.8810    0.0670 H   0  0
    1.3650    1.6170    2.0570 H   0  0
    1.0590    0.1660    2.9610 H   0  0
    3.4940   -0.1970   -0.6150 H   0  0
    2.9260    1.3870   -0.1870 H   0  0
    4.4030    0.0510    1.5760 H   0  0
    3.3610   -4.6120    1.4120 H   0  0
    2.0760   -4.5080    2.6270 H   0  0
    1.6620   -4.6120    0.9060 H   0  0
  1  2  1  0
  2  3  2  0
  2  4  1  0
  3  5  1  0
  4  6  2  0
  5  7  2  0
  5  8  1  0
  7  9  1  0
  8 10  1  0
  9 11  1  0
  9 12  1  0
  9 13  1  0
 11 14  1  0
 12 15  1  0
 14 16  1  0
 16 17  1  0
 16 18  1  0
 18 19  3  0
 19 20  1  0
  6  7  1  0
 10 11  1  0
 15 16  1  0
  1 21  1  0
  3 22  1  0
  4 23  1  0
  6 24  1  0
  8 25  1  0
  8 26  1  0
 10 27  1  0
 10 28  1  0
 11 29  1  0
 12 30  1  0
 12 31  1  0
 13 32  1  0
 13 33  1  0
 13 34  1  0
 14 35  1  0
 14 36  1  0
 15 37  1  0
 15 38  1  0
 17 39  1  0
 20 40  1  0
 20 41  1  0
 20 42  1  0
M  END
> <Name>
CHEMBL511982

> <IC50 nM>
17

> <Molecule_ChEMBL_ID>
CHEMBL511982

> <Smiles>
CC#C[C@@]1(O)CC[C@@]2(C)c3ccc(O)cc3CC[C@@H]2C1

$$$$
CHEMBL184771
  SciTegic08162514313D

 92 96  0  0  0  0            999 V2000
   -3.1930    3.6560    5.6940 S   0  0
   -2.1950    2.6130    5.8440 O   0  0
   -2.6580    4.8850    5.1330 O   0  0
   -4.3220    3.1050    4.6680 N   0  0
   -3.9040    4.0140    7.2950 C   0  0
   -4.5330    3.7440    3.4730 C   0  0
   -3.5470    3.7500    2.4570 C   0  0
   -5.7600    4.4020    3.2620 C   0  0
   -3.8010    4.4200    1.2360 C   0  0
   -2.2400    3.0530    2.6760 C   0  0
   -6.0080    5.0650    2.0490 C   0  0
   -2.8690    4.4470    0.2310 N   0  0
   -5.0330    5.0740    1.0390 C   0  0
   -2.8280    3.3910   -0.7910 C   0  0
   -1.8930    5.5430    0.1640 C   0  0
   -1.4770    3.2720   -1.4000 C   0  0
   -2.4820    6.8300    0.6130 C   0  0
   -1.1600    4.0000   -2.5610 C   0  0
   -0.5140    2.4280   -0.8160 C   0  0
   -2.7130    7.8610   -0.3140 C   0  0
   -2.8090    7.0180    1.9690 C   0  0
    0.1190    3.8850   -3.1330 C   0  0
    0.7620    2.3160   -1.3910 C   0  0
   -3.2710    9.0780    0.1130 C   0  0
   -3.3670    8.2360    2.3950 C   0  0
    1.0820    3.0430   -2.5510 C   0  0
   -3.5980    9.2660    1.4670 C   0  0
    2.2810    2.9360   -3.0900 O   0  0
    2.8630    1.7540   -3.0740 C   0  0
    4.2520    1.6540   -2.8750 C   0  0
    2.1020    0.5880   -3.2540 C   0  0
    4.8750    0.3950   -2.8570 C   0  0
    2.7210   -0.6740   -3.2360 C   0  0
    4.1100   -0.7720   -3.0370 C   0  0
    4.7680   -2.1040   -3.0180 C   0  0
    3.7890   -3.2070   -2.6190 C   0  0
    4.4880   -4.4920   -2.2620 C   0  0
    5.6940   -4.5740   -2.2890 O   0  0
    3.7330   -5.5720   -1.9060 N   0  0
    4.3990   -6.8360   -1.5550 C   0  0
    3.3750   -7.9120   -1.1870 C   0  0
    4.0270   -9.2420   -0.8120 C   0  0
    3.0610  -10.3340   -0.7500 N   0  0
    1.6880  -10.1660   -0.5780 C   0  0
    3.4430  -11.7330   -0.8610 C   0  0
    1.1290   -9.1000   -0.4570 O   0  0
    1.0660  -11.5370   -0.5700 C   0  0
    2.2270  -12.5260   -0.3750 C   0  0
   -4.8650    2.3010    4.9080 H   0  0
   -3.1890    4.3890    8.0280 H   0  0
   -4.3550    3.1090    7.7030 H   0  0
   -4.6910    4.7600    7.1860 H   0  0
   -6.5250    4.4100    4.0240 H   0  0
   -1.7730    2.8460    1.7110 H   0  0
   -1.6110    3.6560    3.3280 H   0  0
   -2.4160    2.0980    3.1700 H   0  0
   -6.9490    5.5680    1.8930 H   0  0
   -5.2440    5.5900    0.1130 H   0  0
   -3.5570    3.6170   -1.5700 H   0  0
   -3.1070    2.4410   -0.3380 H   0  0
   -1.5370    5.6450   -0.8630 H   0  0
   -1.0330    5.2970    0.7890 H   0  0
   -1.8940    4.6480   -3.0140 H   0  0
   -0.7520    1.8650    0.0760 H   0  0
   -2.4650    7.7250   -1.3550 H   0  0
   -2.6350    6.2310    2.6880 H   0  0
    0.3570    4.4450   -4.0250 H   0  0
    1.4980    1.6680   -0.9390 H   0  0
   -3.4490    9.8710   -0.6000 H   0  0
   -3.6190    8.3810    3.4360 H   0  0
   -4.0270   10.2030    1.7950 H   0  0
    4.8440    2.5470   -2.7360 H   0  0
    1.0330    0.6560   -3.4060 H   0  0
    5.9440    0.3280   -2.7030 H   0  0
    2.1270   -1.5640   -3.3750 H   0  0
    5.6190   -2.0780   -2.3380 H   0  0
    5.2010   -2.3090   -3.9960 H   0  0
    3.1450   -3.3650   -3.4840 H   0  0
    3.1600   -2.8850   -1.7890 H   0  0
    2.7340   -5.4980   -1.8870 H   0  0
    5.0860   -6.6600   -0.7280 H   0  0
    5.0160   -7.1600   -2.3930 H   0  0
    2.6540   -8.0490   -1.9940 H   0  0
    2.7210   -7.5650   -0.3890 H   0  0
    4.5470   -9.1600    0.1430 H   0  0
    4.8180   -9.4960   -1.5190 H   0  0
    4.3240  -11.9420   -0.2710 H   0  0
    3.6640  -11.9570   -1.8940 H   0  0
    0.3280  -11.6250    0.2130 H   0  0
    0.5700  -11.7090   -1.5160 H   0  0
    2.3380  -12.7620    0.6760 H   0  0
    2.0880  -13.4510   -0.9120 H   0  0
  1  2  2  0
  1  3  2  0
  1  4  1  0
  1  5  1  0
  4  6  1  0
  6  7  2  0
  6  8  1  0
  7  9  1  0
  7 10  1  0
  8 11  2  0
  9 12  1  0
  9 13  2  0
 12 14  1  0
 12 15  1  0
 14 16  1  0
 15 17  1  0
 16 18  2  0
 16 19  1  0
 17 20  2  0
 17 21  1  0
 18 22  1  0
 19 23  2  0
 20 24  1  0
 21 25  2  0
 22 26  2  0
 24 27  2  0
 26 28  1  0
 28 29  1  0
 29 30  2  0
 29 31  1  0
 30 32  1  0
 31 33  2  0
 32 34  2  0
 34 35  1  0
 35 36  1  0
 36 37  1  0
 37 38  2  0
 37 39  1  0
 39 40  1  0
 40 41  1  0
 41 42  1  0
 42 43  1  0
 43 44  1  0
 43 45  1  0
 44 46  2  0
 44 47  1  0
 45 48  1  0
 11 13  1  0
 23 26  1  0
 25 27  1  0
 33 34  1  0
 47 48  1  0
  4 49  1  0
  5 50  1  0
  5 51  1  0
  5 52  1  0
  8 53  1  0
 10 54  1  0
 10 55  1  0
 10 56  1  0
 11 57  1  0
 13 58  1  0
 14 59  1  0
 14 60  1  0
 15 61  1  0
 15 62  1  0
 18 63  1  0
 19 64  1  0
 20 65  1  0
 21 66  1  0
 22 67  1  0
 23 68  1  0
 24 69  1  0
 25 70  1  0
 27 71  1  0
 30 72  1  0
 31 73  1  0
 32 74  1  0
 33 75  1  0
 35 76  1  0
 35 77  1  0
 36 78  1  0
 36 79  1  0
 39 80  1  0
 40 81  1  0
 40 82  1  0
 41 83  1  0
 41 84  1  0
 42 85  1  0
 42 86  1  0
 45 87  1  0
 45 88  1  0
 47 89  1  0
 47 90  1  0
 48 91  1  0
 48 92  1  0
M  END
> <Name>
CHEMBL184771

> <IC50 nM>
2.2

> <Molecule_ChEMBL_ID>
CHEMBL184771

> <Smiles>
Cc1c(NS(C)(=O)=O)cccc1N(Cc1ccccc1)Cc1ccc(Oc2ccc(CCC(=O)NCCCN3CCCC3=O)cc2)cc1

$$$$
CHEMBL258193
  SciTegic08162514313D

 47 50  0  0  1  0            999 V2000
   -1.0610    2.2010   -0.9900 Cl  0  0
   -0.4840    0.6470   -0.4800 C   0  0
   -1.4000   -0.4390   -0.3850 C   0  0
    0.9020    0.4340   -0.1700 C   0  0
   -2.8320   -0.2690   -0.6350 C   0  0
   -0.9510   -1.7320   -0.0450 C   0  0
    1.3610   -0.9040    0.0900 C   0  0
    1.8690    1.5860   -0.1250 C   0  0  2  0  0  0
   -3.6780    0.4060    0.2870 C   0  0
   -3.3980   -0.7930   -1.8280 C   0  0
    0.4200   -1.9730    0.1760 C   0  0
    2.6900   -1.1720    0.2420 N   0  0
    3.2460    1.2070    0.4510 C   0  0
    1.3540    2.7750    0.7010 C   0  0
   -5.0200    0.5530    0.0290 C   0  0
   -3.3260    0.9670    1.4690 C   0  0
   -4.7870   -0.6350   -2.0820 C   0  0
    0.8260   -3.3550    0.4920 C   0  0
    3.7380   -0.1620   -0.0330 C   0  0
   -5.5640    1.2440    1.1020 N   0  0
   -5.6110    0.0450   -1.1500 C   0  0
   -4.5080    1.5080    2.0080 C   0  0
    5.0240   -0.5450    0.7130 C   0  0
    4.0200   -0.1370   -1.5370 C   0  0
   -1.6520   -2.5510    0.0430 H   0  0
    2.0160    1.9200   -1.1520 H   0  0
   -2.7870   -1.3120   -2.5530 H   0  0
    2.9960   -2.0840    0.5250 H   0  0
    3.1900    1.1930    1.5430 H   0  0
    3.9770    1.9790    0.2050 H   0  0
    0.9260    3.5410    0.0530 H   0  0
    0.5940    2.4510    1.4140 H   0  0
    2.1640    3.2340    1.2660 H   0  0
   -2.3440    1.0020    1.9220 H   0  0
   -5.2170   -1.0310   -2.9900 H   0  0
    1.4160   -3.4530    1.4020 H   0  0
    1.4160   -3.7580   -0.3320 H   0  0
   -0.0610   -3.9800    0.6020 H   0  0
   -6.5160    1.5100    1.2170 H   0  0
   -6.6680    0.1680   -1.3400 H   0  0
   -4.6310    2.0370    2.9430 H   0  0
    4.8670   -0.5960    1.7910 H   0  0
    5.8110    0.1860    0.5250 H   0  0
    5.3850   -1.5180    0.3830 H   0  0
    3.1230    0.0920   -2.1150 H   0  0
    4.3950   -1.1020   -1.8750 H   0  0
    4.7720    0.6150   -1.7770 H   0  0
  1  2  1  0
  2  3  2  0
  2  4  1  0
  3  5  1  0
  3  6  1  0
  4  7  2  0
  4  8  1  0
  5  9  2  0
  5 10  1  0
  6 11  2  0
  7 12  1  0
  8 13  1  0
  8 14  1  0
  9 15  1  0
  9 16  1  0
 10 17  2  0
 11 18  1  0
 12 19  1  0
 15 20  1  0
 15 21  2  0
 16 22  2  0
 19 23  1  0
 19 24  1  0
  7 11  1  0
 13 19  1  0
 17 21  1  0
 20 22  1  0
  6 25  1  0
  8 26  1  0
 10 27  1  0
 12 28  1  0
 13 29  1  0
 13 30  1  0
 14 31  1  0
 14 32  1  0
 14 33  1  0
 16 34  1  0
 17 35  1  0
 18 36  1  0
 18 37  1  0
 18 38  1  0
 20 39  1  0
 21 40  1  0
 22 41  1  0
 23 42  1  0
 23 43  1  0
 23 44  1  0
 24 45  1  0
 24 46  1  0
 24 47  1  0
M  END
> <Name>
CHEMBL258193

> <IC50 nM>
1000

> <Molecule_ChEMBL_ID>
CHEMBL258193

> <Smiles>
Cc1cc(-c2cccc3[nH]ccc23)c(Cl)c2c1NC(C)(C)CC2C

$$$$
CHEMBL1085110
  SciTegic08162514323D

 42 45  0  0  0  0            999 V2000
    4.5350    6.4770   -1.1640 F   0  0
    4.0490    5.2420   -1.0680 C   0  0
    4.6680    4.3050   -0.2270 C   0  0
    2.9120    4.8750   -1.8130 C   0  0
    4.1540    3.0000   -0.1250 C   0  0
    2.3970    3.5720   -1.7130 C   0  0
    3.0160    2.6310   -0.8670 C   0  0
    2.5200    1.3690   -0.7700 N   0  0
    3.2680    0.2150   -0.7460 N   0  0
    1.2110    1.0160   -0.6800 C   0  0
    2.5370   -0.9510   -0.6410 C   0  0
    1.2850   -0.3610   -0.6060 C   0  0
   -0.0100    1.7250   -0.6520 C   0  0
    0.0880   -1.1170   -0.4980 C   0  0
   -1.2070    0.9770   -0.5470 C   0  0
   -1.1680   -0.4450   -0.4690 C   0  0
   -2.4040   -1.2070   -0.3570 C   0  0
   -2.5450   -2.2070    0.6310 C   0  0
   -3.4630   -0.9410   -1.2460 C   0  0
   -1.5660   -2.4750    1.4750 O   0  0
   -3.7480   -2.9300    0.7190 C   0  0
   -4.6620   -1.6700   -1.1500 C   0  0
   -1.7810   -3.4920    2.4410 C   0  0
   -4.8050   -2.6640   -0.1680 C   0  0
   -0.5310   -3.6410    3.3110 C   0  0
    5.5410    4.5820    0.3460 H   0  0
    2.4320    5.5940   -2.4610 H   0  0
    4.6470    2.2930    0.5290 H   0  0
    1.5220    3.3090   -2.2910 H   0  0
    2.8890   -1.9750   -0.6040 H   0  0
   -0.0330    2.8030   -0.7130 H   0  0
    0.1290   -2.1950   -0.4400 H   0  0
   -2.1520    1.5020   -0.5250 H   0  0
   -3.3710   -0.1800   -2.0060 H   0  0
   -3.8630   -3.6950    1.4710 H   0  0
   -5.4730   -1.4630   -1.8320 H   0  0
   -2.6410   -3.2130    3.0470 H   0  0
   -1.9960   -4.4240    1.9140 H   0  0
   -5.7250   -3.2230   -0.0960 H   0  0
   -0.6780   -4.4120    4.0660 H   0  0
    0.3340   -3.9000    2.6990 H   0  0
   -0.3090   -2.7070    3.8260 H   0  0
  1  2  1  0
  2  3  2  0
  2  4  1  0
  3  5  1  0
  4  6  2  0
  5  7  2  0
  7  8  1  0
  8  9  1  0
  8 10  1  0
  9 11  2  0
 10 12  1  0
 10 13  2  0
 12 14  2  0
 13 15  1  0
 14 16  1  0
 16 17  1  0
 17 18  2  0
 17 19  1  0
 18 20  1  0
 18 21  1  0
 19 22  2  0
 20 23  1  0
 21 24  2  0
 23 25  1  0
  6  7  1  0
 11 12  1  0
 15 16  2  0
 22 24  1  0
  3 26  1  0
  4 27  1  0
  5 28  1  0
  6 29  1  0
 11 30  1  0
 13 31  1  0
 14 32  1  0
 15 33  1  0
 19 34  1  0
 21 35  1  0
 22 36  1  0
 23 37  1  0
 23 38  1  0
 24 39  1  0
 25 40  1  0
 25 41  1  0
 25 42  1  0
M  END
> <Name>
CHEMBL1085110

> <IC50 nM>
10000

> <Molecule_ChEMBL_ID>
CHEMBL1085110

> <Smiles>
CCOc1ccccc1-c1ccc2c(cnn2-c2ccc(F)cc2)c1

$$$$
CHEMBL1086314
  SciTegic08162514323D

 38 41  0  0  0  0            999 V2000
    4.5760    5.8200   -0.3650 F   0  0
    4.0880    4.5860   -0.2710 C   0  0
    4.5920    3.5650   -1.0960 C   0  0
    3.0680    4.3030    0.6540 C   0  0
    4.0760    2.2620   -0.9960 C   0  0
    2.5530    2.9980    0.7560 C   0  0
    3.0570    1.9750   -0.0680 C   0  0
    2.5580    0.7130    0.0270 N   0  0
    3.3080   -0.4410    0.0530 N   0  0
    1.2500    0.3590    0.1190 C   0  0
    2.5760   -1.6070    0.1560 C   0  0
    1.3240   -1.0180    0.1910 C   0  0
    0.0290    1.0680    0.1450 C   0  0
    0.1270   -1.7730    0.3010 C   0  0
   -1.1680    0.3200    0.2520 C   0  0
   -1.1270   -1.1020    0.3300 C   0  0
   -2.3650   -1.8650    0.4410 C   0  0
   -3.2970   -1.8950   -0.6190 C   0  0
   -2.6290   -2.5780    1.6250 C   0  0
   -4.4830   -2.6410   -0.4840 C   0  0
   -3.0530   -1.1520   -1.8890 C   0  0
   -3.8150   -3.3200    1.7520 C   0  0
   -4.7420   -3.3520    0.6970 C   0  0
    5.3750    3.7790   -1.8090 H   0  0
    2.6780    5.0840    1.2910 H   0  0
    4.4780    1.4900   -1.6390 H   0  0
    1.7690    2.7990    1.4750 H   0  0
    2.9280   -2.6310    0.1950 H   0  0
    0.0060    2.1470    0.0860 H   0  0
    0.1680   -2.8520    0.3590 H   0  0
   -2.1130    0.8440    0.2730 H   0  0
   -1.9280   -2.5680    2.4490 H   0  0
   -5.2010   -2.6700   -1.2910 H   0  0
   -2.0350   -1.3400   -2.2290 H   0  0
   -3.8030   -1.4370   -2.6250 H   0  0
   -3.1530   -0.0820   -1.7070 H   0  0
   -4.0160   -3.8670    2.6620 H   0  0
   -5.6550   -3.9220    0.7970 H   0  0
  1  2  1  0
  2  3  2  0
  2  4  1  0
  3  5  1  0
  4  6  2  0
  5  7  2  0
  7  8  1  0
  8  9  1  0
  8 10  1  0
  9 11  2  0
 10 12  1  0
 10 13  2  0
 12 14  2  0
 13 15  1  0
 14 16  1  0
 16 17  1  0
 17 18  2  0
 17 19  1  0
 18 20  1  0
 18 21  1  0
 19 22  2  0
 20 23  2  0
  6  7  1  0
 11 12  1  0
 15 16  2  0
 22 23  1  0
  3 24  1  0
  4 25  1  0
  5 26  1  0
  6 27  1  0
 11 28  1  0
 13 29  1  0
 14 30  1  0
 15 31  1  0
 19 32  1  0
 20 33  1  0
 21 34  1  0
 21 35  1  0
 21 36  1  0
 22 37  1  0
 23 38  1  0
M  END
> <Name>
CHEMBL1086314

> <IC50 nM>
10000

> <Molecule_ChEMBL_ID>
CHEMBL1086314

> <Smiles>
Cc1ccccc1-c1ccc2c(cnn2-c2ccc(F)cc2)c1

$$$$
CHEMBL1086313
  SciTegic08162514323D

 36 39  0  0  0  0            999 V2000
    4.5300    5.8790   -0.5740 F   0  0
    4.0410    4.6440   -0.4800 C   0  0
    4.5720    3.6150   -1.2750 C   0  0
    2.9940    4.3690    0.4160 C   0  0
    4.0590    2.3100   -1.1760 C   0  0
    2.4790    3.0640    0.5180 C   0  0
    3.0100    2.0330   -0.2770 C   0  0
    2.5120    0.7710   -0.1810 N   0  0
    3.2620   -0.3830   -0.1560 N   0  0
    1.2050    0.4180   -0.0900 C   0  0
    2.5290   -1.5490   -0.0530 C   0  0
    1.2780   -0.9590   -0.0170 C   0  0
   -0.0170    1.1270   -0.0640 C   0  0
    0.0800   -1.7150    0.0920 C   0  0
   -1.2150    0.3790    0.0430 C   0  0
   -1.1740   -1.0430    0.1210 C   0  0
   -2.4100   -1.8050    0.2330 C   0  0
   -2.5660   -3.0020   -0.4920 C   0  0
   -3.4490   -1.3460    1.0650 C   0  0
   -3.7600   -3.7400   -0.3870 C   0  0
   -4.6420   -2.0800    1.1720 C   0  0
   -4.7930   -3.2760    0.4450 C   0  0
   -6.0160   -4.0280    0.5550 C   0  0
   -7.0000   -4.6350    0.6430 N   0  0
    5.3770    3.8220   -1.9650 H   0  0
    2.5820    5.1580    1.0290 H   0  0
    4.4810    1.5310   -1.7950 H   0  0
    1.6720    2.8730    1.2130 H   0  0
    2.8810   -2.5720   -0.0140 H   0  0
   -0.0410    2.2050   -0.1230 H   0  0
    0.1230   -2.7950    0.1510 H   0  0
   -2.1600    0.9020    0.0650 H   0  0
   -1.7790   -3.3690   -1.1370 H   0  0
   -3.3460   -0.4300    1.6290 H   0  0
   -3.8670   -4.6560   -0.9490 H   0  0
   -5.4340   -1.7170    1.8150 H   0  0
  1  2  1  0
  2  3  2  0
  2  4  1  0
  3  5  1  0
  4  6  2  0
  5  7  2  0
  7  8  1  0
  8  9  1  0
  8 10  1  0
  9 11  2  0
 10 12  1  0
 10 13  2  0
 12 14  2  0
 13 15  1  0
 14 16  1  0
 16 17  1  0
 17 18  2  0
 17 19  1  0
 18 20  1  0
 19 21  2  0
 20 22  2  0
 22 23  1  0
 23 24  3  0
  6  7  1  0
 11 12  1  0
 15 16  2  0
 21 22  1  0
  3 25  1  0
  4 26  1  0
  5 27  1  0
  6 28  1  0
 11 29  1  0
 13 30  1  0
 14 31  1  0
 15 32  1  0
 18 33  1  0
 19 34  1  0
 20 35  1  0
 21 36  1  0
M  END
> <Name>
CHEMBL1086313

> <IC50 nM>
10000

> <Molecule_ChEMBL_ID>
CHEMBL1086313

> <Smiles>
N#Cc1ccc(-c2ccc3c(cnn3-c3ccc(F)cc3)c2)cc1

$$$$
CHEMBL1086484
  SciTegic08162514323D

 56 60  0  0  0  0            999 V2000
   -3.9390   -2.4770   -0.4200 S   0  0
   -4.3460   -1.1800   -0.9340 O   0  0
   -3.1170   -3.2290   -1.3500 O   0  0
   -3.0550   -2.2170    0.9120 N   0  0
   -5.4040   -3.4300   -0.0390 C   0  0
   -1.8890   -1.5020    0.8320 C   0  0
   -6.3610   -3.7830   -1.1190 C   0  0
   -1.1170   -1.2750    1.9860 C   0  0
   -1.4590   -0.9940   -0.4080 C   0  0
   -7.5140   -4.5330   -0.8200 C   0  0
   -6.1170   -3.3690   -2.4410 C   0  0
    0.0800   -0.5430    1.9060 C   0  0
   -0.2640   -0.2600   -0.4920 C   0  0
   -8.4200   -4.8670   -1.8420 C   0  0
   -7.0230   -3.7030   -3.4610 C   0  0
    0.5100   -0.0310    0.6620 C   0  0
    0.8730   -0.3200    3.1480 C   0  0
   -8.1740   -4.4530   -3.1620 C   0  0
    1.7480    0.7300    0.5510 C   0  0
    1.1930    1.0080    3.2540 F   0  0
    2.0240   -1.0650    3.0960 F   0  0
    0.1330   -0.7010    4.2380 F   0  0
    3.0020    0.0610    0.5200 C   0  0
    1.7070    2.1520    0.4730 C   0  0
    4.1990    0.8140    0.4120 C   0  0
    2.9040    2.9020    0.3650 C   0  0
    4.1270    2.1910    0.3400 C   0  0
    5.4510    0.2250    0.3770 C   0  0
    5.4340    2.5470    0.2480 N   0  0
    6.1840    1.3910    0.2730 N   0  0
    5.9320    3.8070    0.1520 C   0  0
    6.9810    4.0840   -0.7460 C   0  0
    5.4010    4.8400    0.9470 C   0  0
    7.4940    5.3890   -0.8460 C   0  0
    5.9160    6.1430    0.8460 C   0  0
    6.9630    6.4180   -0.0510 C   0  0
    7.4510    7.6540   -0.1460 F   0  0
   -3.3590   -2.5780    1.7930 H   0  0
   -5.9410   -2.9570    0.7830 H   0  0
   -5.1190   -4.3300    0.5040 H   0  0
   -1.4370   -1.6620    2.9450 H   0  0
   -2.0390   -1.1580   -1.3070 H   0  0
   -7.7070   -4.8560    0.1910 H   0  0
   -5.2340   -2.7910   -2.6780 H   0  0
    0.0510    0.1230   -1.4530 H   0  0
   -9.3030   -5.4430   -1.6130 H   0  0
   -6.8360   -3.3850   -4.4770 H   0  0
   -8.8710   -4.7090   -3.9470 H   0  0
    3.0430   -1.0200    0.5800 H   0  0
    0.7620    2.6780    0.4940 H   0  0
    2.8810    3.9800    0.3070 H   0  0
    5.8030   -0.7970    0.4160 H   0  0
    7.4030    3.3070   -1.3670 H   0  0
    4.5940    4.6480    1.6430 H   0  0
    8.2990    5.5960   -1.5350 H   0  0
    5.5040    6.9320    1.4590 H   0  0
  1  2  2  0
  1  3  2  0
  1  4  1  0
  1  5  1  0
  4  6  1  0
  5  7  1  0
  6  8  2  0
  6  9  1  0
  7 10  2  0
  7 11  1  0
  8 12  1  0
  9 13  2  0
 10 14  1  0
 11 15  2  0
 12 16  2  0
 12 17  1  0
 14 18  2  0
 16 19  1  0
 17 20  1  0
 17 21  1  0
 17 22  1  0
 19 23  2  0
 19 24  1  0
 23 25  1  0
 24 26  2  0
 25 27  2  0
 25 28  1  0
 27 29  1  0
 28 30  2  0
 29 31  1  0
 31 32  2  0
 31 33  1  0
 32 34  1  0
 33 35  2  0
 34 36  2  0
 36 37  1  0
 13 16  1  0
 15 18  1  0
 26 27  1  0
 29 30  1  0
 35 36  1  0
  4 38  1  0
  5 39  1  0
  5 40  1  0
  8 41  1  0
  9 42  1  0
 10 43  1  0
 11 44  1  0
 13 45  1  0
 14 46  1  0
 15 47  1  0
 18 48  1  0
 23 49  1  0
 24 50  1  0
 26 51  1  0
 28 52  1  0
 32 53  1  0
 33 54  1  0
 34 55  1  0
 35 56  1  0
M  END
> <Name>
CHEMBL1086484

> <IC50 nM>
10

> <Molecule_ChEMBL_ID>
CHEMBL1086484

> <Smiles>
O=S(=O)(Cc1ccccc1)Nc1ccc(-c2ccc3c(cnn3-c3ccc(F)cc3)c2)c(C(F)(F)F)c1

$$$$
CHEMBL1083754
  SciTegic08162514323D

 46 49  0  0  0  0            999 V2000
   -0.9570   -1.4360    2.2520 O   0  0
    0.0610   -1.3870    2.9020 C   0  0
    0.2090   -2.1740    4.0100 N   0  0
    1.1840   -0.4650    2.5160 C   0  0
   -0.8790   -3.0820    4.4000 C   0  0
    1.2810   -0.3110    1.0550 N   0  0
    0.5310    0.5100    0.2660 C   0  0
    2.1460   -0.9630    0.2300 C   0  0
    0.9220    0.3750   -1.0680 C   0  0
   -0.5510    1.4060    0.8180 C   0  0
    1.9510   -0.5630   -1.0940 C   0  0
    0.4060    1.0230   -2.1210 O   0  0
   -0.1700    2.5270    1.7620 C   0  0
   -0.6230    2.8480    0.3530 C   0  0
    2.7050   -1.0470   -2.3110 C   0  0
   -0.9020    1.1760   -2.1740 C   0  0
    4.1880   -1.3320   -2.1930 C   0  0
    3.2090   -2.4750   -2.3440 C   0  0
   -1.7500    0.1870   -1.6410 C   0  0
   -1.4550    2.3260   -2.7620 C   0  0
   -3.1470    0.3460   -1.6950 C   0  0
   -2.8500    2.4920   -2.8200 C   0  0
   -3.6900    1.5000   -2.2870 C   0  0
   -5.1170    1.6660   -2.3440 C   0  0
   -6.2700    1.7990   -2.3910 N   0  0
    1.0530   -2.1330    4.5470 H   0  0
    2.1290   -0.8460    2.9040 H   0  0
    1.0370    0.5120    2.9750 H   0  0
   -0.5650   -3.6640    5.2680 H   0  0
   -1.7850   -2.5020    4.5720 H   0  0
   -1.0760   -3.7770    3.5860 H   0  0
    2.8710   -1.6840    0.5880 H   0  0
   -1.5040    0.9140    1.0120 H   0  0
   -0.8560    2.7560    2.5780 H   0  0
    0.8850    2.6620    1.9980 H   0  0
   -1.6110    3.2870    0.2260 H   0  0
    0.1290    3.1950   -0.3540 H   0  0
    2.3650   -0.6330   -3.2600 H   0  0
    4.6620   -1.1930   -1.2210 H   0  0
    4.8160   -1.0880   -3.0490 H   0  0
    3.1820   -2.9980   -3.2990 H   0  0
    3.0250   -3.1040   -1.4710 H   0  0
   -1.3320   -0.7010   -1.1880 H   0  0
   -0.8110    3.0900   -3.1720 H   0  0
   -3.7850   -0.4220   -1.2830 H   0  0
   -3.2620    3.3830   -3.2760 H   0  0
  1  2  2  0
  2  3  1  0
  2  4  1  0
  3  5  1  0
  4  6  1  0
  6  7  1  0
  6  8  1  0
  7  9  2  0
  7 10  1  0
  8 11  2  0
  9 12  1  0
 10 13  1  0
 10 14  1  0
 11 15  1  0
 12 16  1  0
 15 17  1  0
 15 18  1  0
 16 19  2  0
 16 20  1  0
 19 21  1  0
 20 22  2  0
 21 23  2  0
 23 24  1  0
 24 25  3  0
  9 11  1  0
 13 14  1  0
 17 18  1  0
 22 23  1  0
  3 26  1  0
  4 27  1  0
  4 28  1  0
  5 29  1  0
  5 30  1  0
  5 31  1  0
  8 32  1  0
 10 33  1  0
 13 34  1  0
 13 35  1  0
 14 36  1  0
 14 37  1  0
 15 38  1  0
 17 39  1  0
 17 40  1  0
 18 41  1  0
 18 42  1  0
 19 43  1  0
 20 44  1  0
 21 45  1  0
 22 46  1  0
M  END
> <Name>
CHEMBL1083754

> <IC50 nM>
10000

> <Molecule_ChEMBL_ID>
CHEMBL1083754

> <Smiles>
CNC(=O)Cn1cc(C2CC2)c(Oc2ccc(C#N)cc2)c1C1CC1

$$$$
CHEMBL1083783
  SciTegic08162514323D

 53 57  0  0  0  0            999 V2000
   -5.1060   -2.8420    0.9590 S   0  0
   -5.2680   -1.7190    1.8650 O   0  0
   -6.3380   -3.5740    0.7270 O   0  0
   -4.6150   -2.2480   -0.4690 N   0  0
   -3.9490   -3.9260    1.6390 C   0  0
   -3.4510   -1.5330   -0.5490 C   0  0
   -3.7070   -3.9140    3.0240 C   0  0
   -3.2500   -4.8180    0.8090 C   0  0
   -2.6900   -1.2890    0.6090 C   0  0
   -3.0100   -1.0430   -1.7910 C   0  0
   -2.7640   -4.7990    3.5780 C   0  0
   -2.3090   -5.7030    1.3630 C   0  0
   -1.4920   -0.5550    0.5310 C   0  0
   -1.8150   -0.3110   -1.8750 C   0  0
   -2.0650   -5.6920    2.7480 C   0  0
   -1.0530   -0.0630   -0.7190 C   0  0
   -0.7110   -0.3130    1.7750 C   0  0
    0.1840    0.6990   -0.8280 C   0  0
   -0.4080    1.0210    1.8730 F   0  0
    0.4470   -1.0450    1.7380 F   0  0
   -1.4570   -0.6910    2.8630 F   0  0
    1.4370    0.0270   -0.8590 C   0  0
    0.1430    2.1190   -0.9060 C   0  0
    2.6350    0.7810   -0.9670 C   0  0
    1.3400    2.8690   -1.0140 C   0  0
    2.5630    2.1600   -1.0410 C   0  0
    3.8870    0.1930   -1.0020 C   0  0
    3.8690    2.5140   -1.1310 N   0  0
    4.6190    1.3570   -1.1070 N   0  0
    4.3670    3.7750   -1.2280 C   0  0
    5.4200    4.0510   -2.1210 C   0  0
    3.8320    4.8090   -0.4350 C   0  0
    5.9340    5.3560   -2.2210 C   0  0
    4.3480    6.1110   -0.5370 C   0  0
    5.3980    6.3870   -1.4300 C   0  0
    5.8870    7.6210   -1.5250 F   0  0
   -5.1640   -2.4040   -1.2890 H   0  0
   -4.2440   -3.2290    3.6620 H   0  0
   -3.4360   -4.8280   -0.2560 H   0  0
   -3.0200   -1.6600    1.5700 H   0  0
   -3.5800   -1.2230   -2.6930 H   0  0
   -2.5780   -4.7910    4.6430 H   0  0
   -1.7700   -6.3890    0.7250 H   0  0
   -1.4920    0.0590   -2.8400 H   0  0
   -1.3420   -6.3710    3.1740 H   0  0
    1.4790   -1.0530   -0.8010 H   0  0
   -0.8030    2.6450   -0.8870 H   0  0
    1.3160    3.9470   -1.0740 H   0  0
    4.2380   -0.8300   -0.9650 H   0  0
    5.8460    3.2710   -2.7380 H   0  0
    3.0230    4.6170    0.2560 H   0  0
    6.7420    5.5630   -2.9080 H   0  0
    3.9320    6.9020    0.0720 H   0  0
  1  2  2  0
  1  3  2  0
  1  4  1  0
  1  5  1  0
  4  6  1  0
  5  7  2  0
  5  8  1  0
  6  9  2  0
  6 10  1  0
  7 11  1  0
  8 12  2  0
  9 13  1  0
 10 14  2  0
 11 15  2  0
 13 16  2  0
 13 17  1  0
 16 18  1  0
 17 19  1  0
 17 20  1  0
 17 21  1  0
 18 22  2  0
 18 23  1  0
 22 24  1  0
 23 25  2  0
 24 26  2  0
 24 27  1  0
 26 28  1  0
 27 29  2  0
 28 30  1  0
 30 31  2  0
 30 32  1  0
 31 33  1  0
 32 34  2  0
 33 35  2  0
 35 36  1  0
 12 15  1  0
 14 16  1  0
 25 26  1  0
 28 29  1  0
 34 35  1  0
  4 37  1  0
  7 38  1  0
  8 39  1  0
  9 40  1  0
 10 41  1  0
 11 42  1  0
 12 43  1  0
 14 44  1  0
 15 45  1  0
 22 46  1  0
 23 47  1  0
 25 48  1  0
 27 49  1  0
 31 50  1  0
 32 51  1  0
 33 52  1  0
 34 53  1  0
M  END
> <Name>
CHEMBL1083783

> <IC50 nM>
10000

> <Molecule_ChEMBL_ID>
CHEMBL1083783

> <Smiles>
O=S(=O)(Nc1ccc(-c2ccc3c(cnn3-c3ccc(F)cc3)c2)c(C(F)(F)F)c1)c1ccccc1

$$$$
CHEMBL1084632
  SciTegic08162514323D

 52 55  0  0  0  0            999 V2000
   -4.3710   -3.1050   -0.7360 S   0  0
   -4.6910   -2.0040   -1.6290 O   0  0
   -3.4080   -4.0350   -1.2970 O   0  0
   -3.7170   -2.4710    0.6030 N   0  0
   -5.8770   -3.9920   -0.3540 C   0  0
   -2.5550   -1.7520    0.5230 C   0  0
   -6.4840   -4.5860   -1.6250 C   0  0
   -1.9820   -1.1990    1.6860 C   0  0
   -1.9300   -1.5610   -0.7230 C   0  0
   -7.7810   -5.3520   -1.3570 C   0  0
   -0.7890   -0.4590    1.6050 C   0  0
   -0.7380   -0.8200   -0.8070 C   0  0
   -0.1640   -0.2690    0.3530 C   0  0
   -0.2110    0.1110    2.8540 C   0  0
    1.0740    0.4940    0.2420 C   0  0
   -0.9820   -0.2580    3.9260 F   0  0
   -0.1820    1.4790    2.7620 F   0  0
    1.0650   -0.3630    3.0250 F   0  0
    2.3280   -0.1780    0.2130 C   0  0
    1.0330    1.9160    0.1640 C   0  0
    3.5260    0.5780    0.1050 C   0  0
    2.2310    2.6640    0.0570 C   0  0
    3.4530    1.9550    0.0310 C   0  0
    4.7780   -0.0120    0.0680 C   0  0
    4.7600    2.3090   -0.0590 N   0  0
    5.5100    1.1540   -0.0350 N   0  0
    5.2580    3.5700   -0.1560 C   0  0
    6.3320    3.8400   -1.0270 C   0  0
    4.7010    4.6110    0.6130 C   0  0
    6.8460    5.1450   -1.1270 C   0  0
    5.2170    5.9140    0.5120 C   0  0
    6.2890    6.1820   -0.3570 C   0  0
    6.7780    7.4160   -0.4530 F   0  0
   -4.1600   -2.6070    1.4900 H   0  0
   -5.6620   -4.7750    0.3730 H   0  0
   -6.5820   -3.3180    0.1330 H   0  0
   -6.6430   -3.8110   -2.3750 H   0  0
   -5.7620   -5.2210   -2.1390 H   0  0
   -2.4550   -1.3400    2.6480 H   0  0
   -2.3530   -1.9770   -1.6270 H   0  0
   -8.2710   -5.6190   -2.2930 H   0  0
   -7.5820   -6.2580   -0.7870 H   0  0
   -8.4770   -4.7400   -0.7790 H   0  0
   -0.2710   -0.6860   -1.7740 H   0  0
    2.3710   -1.2560    0.2710 H   0  0
    0.0880    2.4410    0.1860 H   0  0
    2.2070    3.7420   -0.0020 H   0  0
    5.1290   -1.0350    0.1070 H   0  0
    6.7740    3.0570   -1.6270 H   0  0
    3.8770    4.4240    1.2870 H   0  0
    7.6680    5.3460   -1.7970 H   0  0
    4.7870    6.7090    1.1030 H   0  0
  1  2  2  0
  1  3  2  0
  1  4  1  0
  1  5  1  0
  4  6  1  0
  5  7  1  0
  6  8  2  0
  6  9  1  0
  7 10  1  0
  8 11  1  0
  9 12  2  0
 11 13  2  0
 11 14  1  0
 13 15  1  0
 14 16  1  0
 14 17  1  0
 14 18  1  0
 15 19  2  0
 15 20  1  0
 19 21  1  0
 20 22  2  0
 21 23  2  0
 21 24  1  0
 23 25  1  0
 24 26  2  0
 25 27  1  0
 27 28  2  0
 27 29  1  0
 28 30  1  0
 29 31  2  0
 30 32  2  0
 32 33  1  0
 12 13  1  0
 22 23  1  0
 25 26  1  0
 31 32  1  0
  4 34  1  0
  5 35  1  0
  5 36  1  0
  7 37  1  0
  7 38  1  0
  8 39  1  0
  9 40  1  0
 10 41  1  0
 10 42  1  0
 10 43  1  0
 12 44  1  0
 19 45  1  0
 20 46  1  0
 22 47  1  0
 24 48  1  0
 28 49  1  0
 29 50  1  0
 30 51  1  0
 31 52  1  0
M  END
> <Name>
CHEMBL1084632

> <IC50 nM>
10000

> <Molecule_ChEMBL_ID>
CHEMBL1084632

> <Smiles>
CCCS(=O)(=O)Nc1ccc(-c2ccc3c(cnn3-c3ccc(F)cc3)c2)c(C(F)(F)F)c1

$$$$
CHEMBL183755
  SciTegic08162514323D

 74 77  0  0  0  0            999 V2000
    4.9100    6.1430    0.5160 S   0  0
    4.0530    7.0530    1.2580 O   0  0
    4.9380    4.8010    1.0730 O   0  0
    4.3200    6.0350   -0.9880 N   0  0
    6.5740    6.7970    0.5060 C   0  0
    3.7270    4.8710   -1.4120 C   0  0
    2.5840    4.3480   -0.7580 C   0  0
    4.2730    4.1940   -2.5170 C   0  0
    2.0020    3.1450   -1.2240 C   0  0
    1.9980    5.0630    0.4180 C   0  0
    3.6910    3.0020   -2.9740 C   0  0
    0.8950    2.6080   -0.6170 N   0  0
    2.5610    2.4790   -2.3320 C   0  0
   -0.4080    2.5920   -1.2970 C   0  0
    1.0020    2.0370    0.7330 C   0  0
   -1.0200    1.2380   -1.2730 C   0  0
    1.7910    0.7770    0.7330 C   0  0
   -0.5630    0.2440   -2.1560 C   0  0
   -2.0590    0.9490   -0.3710 C   0  0
    1.1330   -0.4670    0.7330 C   0  0
    3.1970    0.8260    0.7330 C   0  0
   -1.1430   -1.0370   -2.1350 C   0  0
   -2.6370   -0.3320   -0.3510 C   0  0
    1.8810   -1.6580    0.7330 C   0  0
    3.9430   -0.3650    0.7330 C   0  0
   -2.1800   -1.3280   -1.2320 C   0  0
    3.2850   -1.6050    0.7330 C   0  0
   -2.7230   -2.5290   -1.2130 O   0  0
   -3.1290   -3.0060   -0.0520 C   0  0
   -4.3320   -3.7280    0.0330 C   0  0
   -2.3590   -2.7930    1.1040 C   0  0
   -4.7660   -4.2360    1.2720 C   0  0
   -2.7890   -3.3010    2.3420 C   0  0
   -3.9920   -4.0230    2.4260 C   0  0
   -6.0370   -5.0000    1.3580 C   0  0
   -5.7870   -6.4840    1.6210 C   0  0
   -5.1780   -7.2030    0.4180 C   0  0
   -3.7290   -6.8540    0.2130 C   0  0
   -2.9530   -6.8440    1.1410 O   0  0
   -3.3870   -6.5660   -1.0390 O   0  0
    4.3870    6.8170   -1.6090 H   0  0
    7.0240    6.8930    1.4940 H   0  0
    6.5720    7.7850    0.0430 H   0  0
    7.2150    6.1510   -0.0920 H   0  0
    5.1470    4.5780   -3.0290 H   0  0
    2.1210    6.1390    0.2890 H   0  0
    0.9550    4.7700    0.5370 H   0  0
    2.5310    4.7720    1.3230 H   0  0
    4.1150    2.4860   -3.8240 H   0  0
    2.1290    1.5590   -2.7010 H   0  0
   -0.2790    2.9140   -2.3280 H   0  0
   -1.0760    3.3010   -0.8060 H   0  0
    0.0020    1.8380    1.1190 H   0  0
    1.4770    2.7620    1.3930 H   0  0
    0.2340    0.4590   -2.8530 H   0  0
   -2.4160    1.7090    0.3110 H   0  0
    0.0550   -0.5120    0.7330 H   0  0
    3.7090    1.7770    0.7330 H   0  0
   -0.7870   -1.7970   -2.8140 H   0  0
   -3.4340   -0.5490    0.3460 H   0  0
    1.3750   -2.6110    0.7330 H   0  0
    5.0230   -0.3240    0.7330 H   0  0
    3.8590   -2.5210    0.7330 H   0  0
   -4.9240   -3.8910   -0.8550 H   0  0
   -1.4340   -2.2400    1.0430 H   0  0
   -2.1950   -3.1370    3.2290 H   0  0
   -4.3180   -4.4100    3.3790 H   0  0
   -6.6080   -4.8630    0.4380 H   0  0
   -6.6660   -4.5700    2.1370 H   0  0
   -6.7030   -6.9790    1.9440 H   0  0
   -5.1640   -6.6190    2.5060 H   0  0
   -5.7600   -6.8890   -0.4470 H   0  0
   -5.2870   -8.2830    0.5180 H   0  0
   -2.4670   -6.3550   -1.2420 H   0  0
  1  2  2  0
  1  3  2  0
  1  4  1  0
  1  5  1  0
  4  6  1  0
  6  7  2  0
  6  8  1  0
  7  9  1  0
  7 10  1  0
  8 11  2  0
  9 12  1  0
  9 13  2  0
 12 14  1  0
 12 15  1  0
 14 16  1  0
 15 17  1  0
 16 18  2  0
 16 19  1  0
 17 20  2  0
 17 21  1  0
 18 22  1  0
 19 23  2  0
 20 24  1  0
 21 25  2  0
 22 26  2  0
 24 27  2  0
 26 28  1  0
 28 29  1  0
 29 30  2  0
 29 31  1  0
 30 32  1  0
 31 33  2  0
 32 34  2  0
 32 35  1  0
 35 36  1  0
 36 37  1  0
 37 38  1  0
 38 39  2  0
 38 40  1  0
 11 13  1  0
 23 26  1  0
 25 27  1  0
 33 34  1  0
  4 41  1  0
  5 42  1  0
  5 43  1  0
  5 44  1  0
  8 45  1  0
 10 46  1  0
 10 47  1  0
 10 48  1  0
 11 49  1  0
 13 50  1  0
 14 51  1  0
 14 52  1  0
 15 53  1  0
 15 54  1  0
 18 55  1  0
 19 56  1  0
 20 57  1  0
 21 58  1  0
 22 59  1  0
 23 60  1  0
 24 61  1  0
 25 62  1  0
 27 63  1  0
 30 64  1  0
 31 65  1  0
 33 66  1  0
 34 67  1  0
 35 68  1  0
 35 69  1  0
 36 70  1  0
 36 71  1  0
 37 72  1  0
 37 73  1  0
 40 74  1  0
M  END
> <Name>
CHEMBL183755

> <IC50 nM>
75

> <Molecule_ChEMBL_ID>
CHEMBL183755

> <Smiles>
Cc1c(NS(C)(=O)=O)cccc1N(Cc1ccccc1)Cc1ccc(Oc2cccc(CCCC(=O)O)c2)cc1

$$$$
CHEMBL182984
  SciTegic08162514323D

 82 85  0  0  0  0            999 V2000
   -4.5100    4.8500    2.5180 S   0  0
   -4.1020    5.0660    3.8940 O   0  0
   -3.4670    5.1580    1.5550 O   0  0
   -4.8690    3.2770    2.3570 N   0  0
   -5.9380    5.8710    2.1720 C   0  0
   -3.9800    2.3240    2.7830 C   0  0
   -4.3540    0.9610    2.8790 C   0  0
   -2.6740    2.7190    3.1250 C   0  0
   -3.4060    0.0080    3.3220 C   0  0
   -5.7400    0.5330    2.5180 C   0  0
   -1.7380    1.7680    3.5640 C   0  0
   -3.7300   -1.3220    3.4300 N   0  0
   -2.1040    0.4180    3.6620 C   0  0
   -4.0660   -2.1170    2.2380 C   0  0
   -3.7460   -1.9710    4.7480 C   0  0
   -3.2480   -1.7170    1.0640 C   0  0
   -2.9570   -3.2310    4.7480 C   0  0
   -1.8530   -1.9020    1.0820 C   0  0
   -3.8670   -1.1520   -0.0650 C   0  0
   -3.6150   -4.4750    4.7480 C   0  0
   -1.5530   -3.1800    4.7480 C   0  0
   -1.0820   -1.5220   -0.0290 C   0  0
   -3.0920   -0.7730   -1.1740 C   0  0
   -2.8690   -5.6640    4.7480 C   0  0
   -0.8050   -4.3710    4.7480 C   0  0
   -1.6970   -0.9570   -1.1600 C   0  0
   -1.4630   -5.6130    4.7480 C   0  0
   -0.9730   -0.6020   -2.2010 O   0  0
    0.2150   -0.0740   -1.9790 C   0  0
    1.2950   -0.3830   -2.8240 C   0  0
    0.4060    0.7970   -0.8930 C   0  0
    2.5650    0.1780   -2.5880 C   0  0
    1.6720    1.3570   -0.6520 C   0  0
    3.5740   -0.1130   -3.3830 O   0  0
    2.7500    1.0490   -1.5000 C   0  0
    4.8380    0.4670   -3.0940 C   0  0
    5.8480    0.0000   -4.1080 C   0  0
    6.6920   -0.8160   -3.8170 O   0  0
    5.7950    0.5160   -5.3710 N   0  0
    6.7740    0.0720   -6.3750 C   0  0
    8.1230    0.7580   -6.1640 C   0  0
    9.1700    0.3260   -7.1920 C   0  0
   10.4920    1.0160   -6.9870 C   0  0
   11.1970    0.7400   -6.0450 O   0  0
   10.8070    1.9220   -7.9080 O   0  0
   -5.7400    3.0040    1.9490 H   0  0
   -5.7790    6.9360    2.3500 H   0  0
   -6.7730    5.5490    2.7930 H   0  0
   -6.2290    5.7460    1.1290 H   0  0
   -2.3690    3.7560    3.0590 H   0  0
   -6.4550    1.2730    2.8770 H   0  0
   -5.8010    0.3770    1.4390 H   0  0
   -5.9670   -0.4140    3.0060 H   0  0
   -0.7380    2.0780    3.8260 H   0  0
   -1.3650   -0.2990    4.0020 H   0  0
   -5.1230   -1.9880    2.0060 H   0  0
   -3.8980   -3.1740    2.4550 H   0  0
   -4.7770   -2.1880    5.0270 H   0  0
   -3.3380   -1.2850    5.4900 H   0  0
   -1.3730   -2.3360    1.9450 H   0  0
   -4.9380   -1.0080   -0.0840 H   0  0
   -4.6950   -4.5200    4.7480 H   0  0
   -1.0410   -2.2290    4.7480 H   0  0
   -0.0120   -1.6660   -0.0120 H   0  0
   -3.5720   -0.3400   -2.0390 H   0  0
   -3.3730   -6.6190    4.7480 H   0  0
    0.2730   -4.3320    4.7480 H   0  0
   -0.8910   -6.5290    4.7480 H   0  0
    1.1500   -1.0530   -3.6580 H   0  0
   -0.4200    1.0370   -0.2380 H   0  0
    1.8180    2.0270    0.1820 H   0  0
    3.7210    1.4800   -1.3150 H   0  0
    5.1390    0.1460   -2.0980 H   0  0
    4.7360    1.5510   -3.1450 H   0  0
    5.0940    1.1890   -5.6040 H   0  0
    6.3850    0.2810   -7.3710 H   0  0
    6.8790   -1.0120   -6.3170 H   0  0
    8.4870    0.5900   -5.1510 H   0  0
    8.0080    1.8420   -6.1620 H   0  0
    8.7620    0.5920   -8.1680 H   0  0
    9.3090   -0.7540   -7.1720 H   0  0
   10.1920    2.0940   -8.6310 H   0  0
  1  2  2  0
  1  3  2  0
  1  4  1  0
  1  5  1  0
  4  6  1  0
  6  7  2  0
  6  8  1  0
  7  9  1  0
  7 10  1  0
  8 11  2  0
  9 12  1  0
  9 13  2  0
 12 14  1  0
 12 15  1  0
 14 16  1  0
 15 17  1  0
 16 18  2  0
 16 19  1  0
 17 20  2  0
 17 21  1  0
 18 22  1  0
 19 23  2  0
 20 24  1  0
 21 25  2  0
 22 26  2  0
 24 27  2  0
 26 28  1  0
 28 29  1  0
 29 30  2  0
 29 31  1  0
 30 32  1  0
 31 33  2  0
 32 34  1  0
 32 35  2  0
 34 36  1  0
 36 37  1  0
 37 38  2  0
 37 39  1  0
 39 40  1  0
 40 41  1  0
 41 42  1  0
 42 43  1  0
 43 44  2  0
 43 45  1  0
 11 13  1  0
 23 26  1  0
 25 27  1  0
 33 35  1  0
  4 46  1  0
  5 47  1  0
  5 48  1  0
  5 49  1  0
  8 50  1  0
 10 51  1  0
 10 52  1  0
 10 53  1  0
 11 54  1  0
 13 55  1  0
 14 56  1  0
 14 57  1  0
 15 58  1  0
 15 59  1  0
 18 60  1  0
 19 61  1  0
 20 62  1  0
 21 63  1  0
 22 64  1  0
 23 65  1  0
 24 66  1  0
 25 67  1  0
 27 68  1  0
 30 69  1  0
 31 70  1  0
 33 71  1  0
 35 72  1  0
 36 73  1  0
 36 74  1  0
 39 75  1  0
 40 76  1  0
 40 77  1  0
 41 78  1  0
 41 79  1  0
 42 80  1  0
 42 81  1  0
 45 82  1  0
M  END
> <Name>
CHEMBL182984

> <IC50 nM>
11

> <Molecule_ChEMBL_ID>
CHEMBL182984

> <Smiles>
Cc1c(NS(C)(=O)=O)cccc1N(Cc1ccccc1)Cc1ccc(Oc2cccc(OCC(=O)NCCCC(=O)O)c2)cc1

$$$$
CHEMBL1084013
  SciTegic08162514323D

 57 61  0  0  0  0            999 V2000
   -3.3480   -2.5430    1.7500 S   0  0
   -2.1970   -3.3710    2.0720 O   0  0
   -3.6250   -1.5330    2.7560 O   0  0
   -3.0210   -1.7730    0.3630 N   0  0
   -4.7310   -3.5660    1.6110 C   0  0
   -1.8630   -1.0530    0.2360 C   0  0
   -4.9430   -4.3030    0.4340 C   0  0
   -5.6410   -3.6640    2.6780 C   0  0
   -1.4860   -0.5370   -1.0180 C   0  0
   -1.0470   -0.8280    1.3590 C   0  0
   -6.0680   -5.1370    0.3160 C   0  0
   -6.7660   -4.4980    2.5630 C   0  0
   -0.2970    0.2030   -1.1520 C   0  0
    0.1410   -0.0900    1.2310 C   0  0
   -6.2700   -5.8280   -0.7870 O   0  0
   -6.9790   -5.2340    1.3850 C   0  0
    0.5220    0.4280   -0.0230 C   0  0
    0.0720    0.7360   -2.4940 C   0  0
   -7.5200   -6.4860   -0.9430 C   0  0
    1.7560    1.1890   -0.1350 C   0  0
    1.3830    0.4340   -2.7600 F   0  0
   -0.0960    2.0960   -2.5080 F   0  0
   -0.7300    0.1660   -3.4490 F   0  0
    3.0100    0.5180   -0.1640 C   0  0
    1.7150    2.6110   -0.2130 C   0  0
    4.2070    1.2730   -0.2710 C   0  0
    2.9120    3.3590   -0.3200 C   0  0
    4.1350    2.6500   -0.3460 C   0  0
    5.4610    0.6840   -0.3090 C   0  0
    5.4420    3.0040   -0.4360 N   0  0
    6.1920    1.8500   -0.4120 N   0  0
    5.9400    4.2660   -0.5330 C   0  0
    6.9900    4.5430   -1.4300 C   0  0
    5.4080    5.2990    0.2620 C   0  0
    7.5040    5.8480   -1.5310 C   0  0
    5.9240    6.6020    0.1600 C   0  0
    6.9710    6.8770   -0.7340 C   0  0
    7.4590    8.1110   -0.8300 F   0  0
   -3.6660   -1.8240   -0.4000 H   0  0
   -4.2400   -4.2250   -0.3830 H   0  0
   -5.4770   -3.1000    3.5840 H   0  0
   -2.1070   -0.7030   -1.8890 H   0  0
   -1.3200   -1.2170    2.3320 H   0  0
   -7.4670   -4.5740    3.3810 H   0  0
    0.7560    0.0720    2.1040 H   0  0
   -7.8440   -5.8730    1.2990 H   0  0
   -7.5980   -6.8280   -1.9750 H   0  0
   -7.5980   -7.2540   -0.1740 H   0  0
   -8.3130   -5.7580   -0.7710 H   0  0
    3.0530   -0.5630   -0.1050 H   0  0
    0.7720    3.1350   -0.1910 H   0  0
    2.8890    4.4380   -0.3790 H   0  0
    5.8110   -0.3400   -0.2700 H   0  0
    7.4120    3.7640   -2.0510 H   0  0
    4.6020    5.1060    0.9570 H   0  0
    8.3090    6.0550   -2.2210 H   0  0
    5.5120    7.3910    0.7730 H   0  0
  1  2  2  0
  1  3  2  0
  1  4  1  0
  1  5  1  0
  4  6  1  0
  5  7  2  0
  5  8  1  0
  6  9  2  0
  6 10  1  0
  7 11  1  0
  8 12  2  0
  9 13  1  0
 10 14  2  0
 11 15  1  0
 11 16  2  0
 13 17  2  0
 13 18  1  0
 15 19  1  0
 17 20  1  0
 18 21  1  0
 18 22  1  0
 18 23  1  0
 20 24  2  0
 20 25  1  0
 24 26  1  0
 25 27  2  0
 26 28  2  0
 26 29  1  0
 28 30  1  0
 29 31  2  0
 30 32  1  0
 32 33  2  0
 32 34  1  0
 33 35  1  0
 34 36  2  0
 35 37  2  0
 37 38  1  0
 12 16  1  0
 14 17  1  0
 27 28  1  0
 30 31  1  0
 36 37  1  0
  4 39  1  0
  7 40  1  0
  8 41  1  0
  9 42  1  0
 10 43  1  0
 12 44  1  0
 14 45  1  0
 16 46  1  0
 19 47  1  0
 19 48  1  0
 19 49  1  0
 24 50  1  0
 25 51  1  0
 27 52  1  0
 29 53  1  0
 33 54  1  0
 34 55  1  0
 35 56  1  0
 36 57  1  0
M  END
> <Name>
CHEMBL1084013

> <IC50 nM>
15.85

> <Molecule_ChEMBL_ID>
CHEMBL1084013

> <Smiles>
COc1cccc(S(=O)(=O)Nc2ccc(-c3ccc4c(cnn4-c4ccc(F)cc4)c3)c(C(F)(F)F)c2)c1

$$$$
CHEMBL235205
  SciTegic08162514323D

 71 75  0  0  1  0            999 V2000
    3.2270    5.9360    1.0800 F   0  0
    2.7890    6.7580    0.1270 C   0  0
    1.8260    6.3400   -0.8200 C   0  0
    3.3050    8.0670    0.0720 C   0  0
    1.3180    5.0800   -0.7890 N   0  0
    1.3870    7.2400   -1.8110 C   0  0
    2.8630    8.9590   -0.9200 C   0  0
    0.8160    4.5040    0.3070 N   0  0
    1.2340    4.2210   -1.8360 C   0  0
    1.9020    8.5470   -1.8590 C   0  0
    3.3540   10.1950   -0.9690 F   0  0
    0.3830    3.2560    0.0510 C   0  0
    1.6660    4.4380   -3.2300 N   0  0
    0.6390    3.0450   -1.3200 C   0  0
    0.3380    1.8280   -2.0640 C   0  0
    0.6130    1.7520   -3.2400 O   0  0
   -0.2560    0.7750   -1.4260 N   0  0
   -0.5570   -0.4490   -2.1800 C   0  0
   -0.5060   -1.6780   -1.2710 C   0  0  3  0  0  0
    0.8340   -1.8910   -0.8910 O   0  0
   -0.9570   -2.8670   -2.1210 C   0  0
   -1.3420   -1.5080   -0.0040 C   0  0
   -0.2250   -2.9040   -3.2790 F   0  0
   -2.2870   -2.7340   -2.4260 F   0  0
   -0.7620   -4.0290   -1.4200 F   0  0
   -1.4770   -2.8130    0.7970 C   0  0  3  0  0  0
   -0.2050   -3.6000    0.8140 C   0  0
   -1.8260   -2.3570    2.2130 C   0  0
   -2.6880   -3.6150    0.2730 C   0  0
   -0.1990   -5.0240    0.6600 C   0  0
    1.0330   -2.9240    1.0000 C   0  0
   -0.5490   -2.0700    2.9980 C   0  0
   -2.5470   -1.0060    2.1860 C   0  0
   -2.7250   -5.0250    0.8630 C   0  0
    1.0310   -5.7270    0.6820 C   0  0
   -1.4550   -5.7950    0.4730 C   0  0
    2.2520   -3.6390    1.0220 C   0  0
   -0.1640   -0.6820    2.5040 C   0  0
   -1.5000    0.0490    2.5510 C   0  0
    2.2520   -5.0390    0.8590 C   0  0
    4.0410    8.3850    0.7950 H   0  0
    0.6480    6.9430   -2.5430 H   0  0
    1.5590    9.2310   -2.6210 H   0  0
   -0.0630    2.5880    0.7750 H   0  0
    1.4280    3.7700   -3.9360 H   0  0
    2.1950    5.2520   -3.4690 H   0  0
   -0.4790    0.8480   -0.4550 H   0  0
    0.1540   -0.5490   -3.0020 H   0  0
   -1.5370   -0.3540   -2.6450 H   0  0
    1.3070   -1.0550   -1.0250 H   0  0
   -2.3240   -1.1000   -0.2400 H   0  0
   -0.9380   -0.7130    0.6210 H   0  0
   -2.4220   -3.1150    2.6990 H   0  0
   -3.6210   -3.0940    0.4920 H   0  0
   -2.6390   -3.6910   -0.8140 H   0  0
    1.0570   -1.8520    1.1310 H   0  0
   -0.7520   -2.0510    4.0610 H   0  0
    0.2280   -2.8010    2.8240 H   0  0
   -3.3520   -0.9900    2.9040 H   0  0
   -2.9860   -0.8050    1.2190 H   0  0
   -3.6060   -5.5610    0.5080 H   0  0
   -2.8130   -4.9730    1.9490 H   0  0
    1.0430   -6.8010    0.5610 H   0  0
   -1.4140   -6.7250    1.0450 H   0  0
   -1.5180   -6.0840   -0.5780 H   0  0
    3.1860   -3.1110    1.1600 H   0  0
    0.2170   -0.7230    1.4940 H   0  0
    0.5840   -0.2130    3.1250 H   0  0
   -1.5220    0.8980    1.8850 H   0  0
   -1.6840    0.4160    3.5510 H   0  0
    3.1840   -5.5860    0.8730 H   0  0
  1  2  1  0
  2  3  2  0
  2  4  1  0
  3  5  1  0
  3  6  1  0
  4  7  2  0
  5  8  1  0
  5  9  1  0
  6 10  2  0
  7 11  1  0
  8 12  2  0
  9 13  1  0
  9 14  2  0
 14 15  1  0
 15 16  2  0
 15 17  1  0
 17 18  1  0
 18 19  1  0
 19 20  1  0
 19 21  1  0
 19 22  1  0
 21 23  1  0
 21 24  1  0
 21 25  1  0
 22 26  1  0
 26 27  1  0
 26 28  1  0
 26 29  1  0
 27 30  2  0
 27 31  1  0
 28 32  1  0
 28 33  1  0
 29 34  1  0
 30 35  1  0
 30 36  1  0
 31 37  2  0
 32 38  1  0
 33 39  1  0
 35 40  2  0
  7 10  1  0
 12 14  1  0
 34 36  1  0
 37 40  1  0
 38 39  1  0
  4 41  1  0
  6 42  1  0
 10 43  1  0
 12 44  1  0
 13 45  1  0
 13 46  1  0
 17 47  1  0
 18 48  1  0
 18 49  1  0
 20 50  1  0
 22 51  1  0
 22 52  1  0
 28 53  1  0
 29 54  1  0
 29 55  1  0
 31 56  1  0
 32 57  1  0
 32 58  1  0
 33 59  1  0
 33 60  1  0
 34 61  1  0
 34 62  1  0
 35 63  1  0
 36 64  1  0
 36 65  1  0
 37 66  1  0
 38 67  1  0
 38 68  1  0
 39 69  1  0
 39 70  1  0
 40 71  1  0
M  END
> <Name>
CHEMBL235205

> <IC50 nM>
20.89

> <Molecule_ChEMBL_ID>
CHEMBL235205

> <Smiles>
Nc1c(C(=O)NCC(O)(CC2(C3CCCC3)CCCc3ccccc32)C(F)(F)F)cnn1-c1ccc(F)cc1F

$$$$
CHEMBL237973
  SciTegic08162514323D

 64 67  0  0  1  0            999 V2000
   -8.7170    2.9550    3.8790 F   0  0
   -7.5290    2.6580    3.3600 C   0  0
   -6.7990    1.5640    3.8540 C   0  0
   -7.0040    3.4370    2.3150 C   0  0
   -5.5430    1.2480    3.3050 C   0  0
   -5.7480    3.1250    1.7640 C   0  0
   -5.0160    2.0290    2.2580 C   0  0
   -3.8010    1.7270    1.7270 N   0  0
   -3.4550    0.5100    1.2990 N   0  0
   -2.7660    2.5840    1.5470 C   0  0
   -2.1970    0.4960    0.8200 C   0  0
   -2.7030    4.0210    1.8750 N   0  0
   -1.7250    1.8160    0.9670 C   0  0
   -0.4020    2.2950    0.5860 C   0  0
   -0.0430    3.4040    0.9080 O   0  0
    0.4260    1.4840   -0.1370 N   0  0
    1.7600    1.9710   -0.5170 C   0  0
    2.8300    0.9160   -0.2340 C   0  0  3  0  0  0
    3.5610    0.6990   -1.4200 O   0  0
    3.8090    1.3480    0.8580 C   0  0
    2.2360   -0.4200    0.2130 C   0  0
    4.6130    0.2890    1.1930 F   0  0
    3.1070    1.7580    1.9630 F   0  0
    4.5800    2.3830    0.3990 F   0  0
    1.8630   -1.3280   -0.9690 C   0  0  3  0  0  0
    2.9280   -2.3580   -1.1970 C   0  0
    0.4800   -1.9510   -0.6640 C   0  0
    1.7520   -0.4610   -2.2300 C   0  0
    2.6150   -3.7420   -1.3940 C   0  0
    4.2890   -1.9510   -1.2380 C   0  0
    0.1740   -3.1350   -1.5800 C   0  0
    0.5960   -0.8830   -3.1370 C   0  0
    3.6600   -4.6740   -1.6150 C   0  0
    1.2150   -4.2380   -1.3690 C   0  0
    5.3220   -2.8890   -1.4570 C   0  0
    5.0080   -4.2520   -1.6440 C   0  0
   -7.1970    0.9610    4.6560 H   0  0
   -7.5630    4.2790    1.9320 H   0  0
   -4.9960    0.4020    3.6990 H   0  0
   -5.3610    3.7380    0.9610 H   0  0
   -1.6910   -0.3730    0.4180 H   0  0
   -1.8930    4.5740    1.6800 H   0  0
   -3.4860    4.4710    2.3050 H   0  0
    0.1270    0.5680   -0.4000 H   0  0
    1.7540    2.2400   -1.5740 H   0  0
    1.9730    2.8930    0.0240 H   0  0
    3.6700    1.5620   -1.8510 H   0  0
    2.9160   -0.9340    0.8950 H   0  0
    1.3770   -0.2620    0.8650 H   0  0
   -0.3030   -1.1950   -0.7540 H   0  0
    0.4410   -2.2950    0.3710 H   0  0
    1.6700    0.5940   -1.9670 H   0  0
    2.6930   -0.4610   -2.7810 H   0  0
    4.5510   -0.9120   -1.1010 H   0  0
   -0.8260   -3.5220   -1.3770 H   0  0
    0.1720   -2.8090   -2.6230 H   0  0
    0.2890   -0.0590   -3.7790 H   0  0
    0.8830   -1.7310   -3.7580 H   0  0
   -0.2700   -1.1840   -2.5430 H   0  0
    3.4340   -5.7210   -1.7640 H   0  0
    1.0410   -4.7150   -0.4020 H   0  0
    1.0740   -5.0120   -2.1250 H   0  0
    6.3520   -2.5650   -1.4800 H   0  0
    5.7970   -4.9710   -1.8120 H   0  0
  1  2  1  0
  2  3  2  0
  2  4  1  0
  3  5  1  0
  4  6  2  0
  5  7  2  0
  7  8  1  0
  8  9  1  0
  8 10  1  0
  9 11  2  0
 10 12  1  0
 10 13  2  0
 13 14  1  0
 14 15  2  0
 14 16  1  0
 16 17  1  0
 17 18  1  0
 18 19  1  0
 18 20  1  0
 18 21  1  0
 20 22  1  0
 20 23  1  0
 20 24  1  0
 21 25  1  0
 25 26  1  0
 25 27  1  0
 25 28  1  0
 26 29  2  0
 26 30  1  0
 27 31  1  0
 28 32  1  0
 29 33  1  0
 29 34  1  0
 30 35  2  0
 33 36  2  0
  6  7  1  0
 11 13  1  0
 31 34  1  0
 35 36  1  0
  3 37  1  0
  4 38  1  0
  5 39  1  0
  6 40  1  0
 11 41  1  0
 12 42  1  0
 12 43  1  0
 16 44  1  0
 17 45  1  0
 17 46  1  0
 19 47  1  0
 21 48  1  0
 21 49  1  0
 27 50  1  0
 27 51  1  0
 28 52  1  0
 28 53  1  0
 30 54  1  0
 31 55  1  0
 31 56  1  0
 32 57  1  0
 32 58  1  0
 32 59  1  0
 33 60  1  0
 34 61  1  0
 34 62  1  0
 35 63  1  0
 36 64  1  0
M  END
> <Name>
CHEMBL237973

> <IC50 nM>
9.77

> <Molecule_ChEMBL_ID>
CHEMBL237973

> <Smiles>
CCC1(CC(O)(CNC(=O)c2cnn(-c3ccc(F)cc3)c2N)C(F)(F)F)CCCc2ccccc21

$$$$
CHEMBL465927
  SciTegic08162514323D

 61 63  0  0  1  0            999 V2000
   -1.7340   -2.3770   -2.1250 F   0  0
   -0.5180   -2.8730   -2.3420 C   0  0
    0.6050   -2.0240   -2.3930 C   0  0
   -0.3610   -4.2580   -2.5200 C   0  0
    1.8850   -2.5680   -2.6230 C   0  0
    0.4410   -0.5490   -2.2030 C   0  0
    0.9140   -4.7990   -2.7500 C   0  0
    2.9610   -1.7830   -2.6760 F   0  0
    2.0370   -3.9550   -2.8030 C   0  0
   -0.5250   -0.0980   -1.6350 O   0  0
    1.4100    0.2870   -2.6840 N   0  0
    2.3500    0.9200   -1.7460 C   0  0
    1.5370    0.5720   -4.1210 C   0  0
    1.9350    2.3610   -1.4450 C   0  0  2  0  0  0
    0.3360    1.3670   -4.6310 C   0  0
    1.8710    3.0640   -2.6660 O   0  0
    3.0570    2.9690   -0.6020 C   0  0
    0.5680    2.4550   -0.7680 C   0  0
    0.4390    1.7030   -6.1190 C   0  0
    4.2700    2.6700   -1.1680 F   0  0
    3.0040    2.4530    0.6660 F   0  0
    2.9000    4.3300   -0.5470 F   0  0
    0.4940    1.5550    0.3930 N   0  0
   -0.6540    1.5040    1.1290 C   0  0
   -1.6040    2.1930    0.8300 O   0  0
   -0.7330    0.6130    2.2790 C   0  0
   -1.7740    0.5660    3.2400 C   0  0
    0.2230   -0.3610    2.6350 C   0  0
   -1.4200   -0.4060    4.1190 N   0  0
   -2.9790    1.4180    3.2560 N   0  0
   -0.2520   -0.9400    3.7520 N   0  0
   -2.1270   -0.7990    5.2110 C   0  0
   -2.4590   -2.1560    5.3870 C   0  0
   -2.5290    0.1500    6.1720 C   0  0
   -3.1920   -2.5610    6.5180 C   0  0
   -3.2600   -0.2580    7.3010 C   0  0
   -3.5920   -1.6130    7.4750 C   0  0
   -4.2830   -1.9980    8.5430 F   0  0
   -1.2210   -4.9100   -2.4770 H   0  0
    1.0330   -5.8630   -2.8890 H   0  0
    3.0160   -4.3750   -2.9820 H   0  0
    3.3530    0.8870   -2.1680 H   0  0
    2.3910    0.3320   -0.8280 H   0  0
    2.4650    1.1170   -4.2970 H   0  0
    1.6370   -0.3670   -4.6640 H   0  0
   -0.5940    0.8400   -4.4180 H   0  0
    0.1950    2.2730   -4.0410 H   0  0
    2.7790    3.3160   -2.8980 H   0  0
   -0.2270    2.2030   -1.4690 H   0  0
    0.3690    3.4770   -0.4430 H   0  0
   -0.4400    2.2580   -6.4490 H   0  0
    1.3320    2.2970   -6.3180 H   0  0
    0.5040    0.7930   -6.7150 H   0  0
    1.2770    0.9840    0.6410 H   0  0
    1.1520   -0.6210    2.1430 H   0  0
   -3.1150    2.1560    2.5960 H   0  0
   -3.6920    1.2620    3.9410 H   0  0
   -2.1600   -2.9000    4.6620 H   0  0
   -2.2850    1.1970    6.0550 H   0  0
   -3.4440   -3.6040    6.6470 H   0  0
   -3.5670    0.4750    8.0330 H   0  0
  1  2  1  0
  2  3  2  0
  2  4  1  0
  3  5  1  0
  3  6  1  0
  4  7  2  0
  5  8  1  0
  5  9  2  0
  6 10  2  0
  6 11  1  0
 11 12  1  0
 11 13  1  0
 12 14  1  0
 13 15  1  0
 14 16  1  0
 14 17  1  0
 14 18  1  0
 15 19  1  0
 17 20  1  0
 17 21  1  0
 17 22  1  0
 18 23  1  0
 23 24  1  0
 24 25  2  0
 24 26  1  0
 26 27  2  0
 26 28  1  0
 27 29  1  0
 27 30  1  0
 28 31  2  0
 29 32  1  0
 32 33  2  0
 32 34  1  0
 33 35  1  0
 34 36  2  0
 35 37  2  0
 37 38  1  0
  7  9  1  0
 29 31  1  0
 36 37  1  0
  4 39  1  0
  7 40  1  0
  9 41  1  0
 12 42  1  0
 12 43  1  0
 13 44  1  0
 13 45  1  0
 15 46  1  0
 15 47  1  0
 16 48  1  0
 18 49  1  0
 18 50  1  0
 19 51  1  0
 19 52  1  0
 19 53  1  0
 23 54  1  0
 28 55  1  0
 30 56  1  0
 30 57  1  0
 33 58  1  0
 34 59  1  0
 35 60  1  0
 36 61  1  0
M  END
> <Name>
CHEMBL465927

> <IC50 nM>
15.85

> <Molecule_ChEMBL_ID>
CHEMBL465927

> <Smiles>
CCCN(CC(O)(CNC(=O)c1cnn(-c2ccc(F)cc2)c1N)C(F)(F)F)C(=O)c1c(F)cccc1F

$$$$
CHEMBL3093458
  SciTegic08162514323D

 47 48  0  0  1  0            999 V2000
   -0.6430    0.3460   -0.1000 S   0  0
    0.3870   -0.6560   -0.3240 O   0  0
   -1.8360   -0.1910    0.5310 O   0  0
    0.0310    1.4790    1.0370 N   0  0
   -1.0900    1.0180   -1.6270 C   0  0
    0.2850    1.0160    2.3910 C   0  0  2  0  0  0
   -2.2190    0.5270   -2.3090 C   0  0
   -0.3220    2.0570   -2.1890 C   0  0
    0.7290    2.1800    3.2790 C   0  0
    1.2890   -0.1370    2.3850 C   0  0
   -2.5800    1.0760   -3.5510 C   0  0
   -3.0330   -0.5700   -1.7210 C   0  0
   -0.6880    2.6020   -3.4340 C   0  0
    0.8710    2.5800   -1.4770 C   0  0
   -0.2420    3.1480    3.2810 F   0  0
    1.8970    2.7050    2.7950 F   0  0
    0.9260    1.7290    4.5590 F   0  0
    0.6020   -1.4360    2.3970 N   0  0
   -1.8160    2.1130   -4.1130 C   0  0
    1.3280   -2.5960    2.3970 C   0  0
   -2.2010    2.6910   -5.4280 C   0  0
    0.6720   -3.8420    2.3970 C   0  0
    2.7360   -2.5470    2.3970 C   0  0
    1.4200   -5.0310    2.3970 C   0  0
    3.4820   -3.7380    2.3970 C   0  0
    2.8240   -4.9810    2.3970 C   0  0
   -0.5700    2.3130    1.0880 H   0  0
   -0.7030    0.6640    2.6840 H   0  0
    1.9530   -0.0740    3.2480 H   0  0
    1.9340   -0.0800    1.5080 H   0  0
   -3.4490    0.6990   -4.0740 H   0  0
   -2.4490   -1.4100   -1.3440 H   0  0
   -3.7210   -0.9550   -2.4730 H   0  0
   -3.6270   -0.1800   -0.8940 H   0  0
   -0.1000    3.4000   -3.8650 H   0  0
    1.5510    3.1580   -2.1020 H   0  0
    1.4360    1.7480   -1.0530 H   0  0
    0.5530    3.2190   -0.6520 H   0  0
   -0.3980   -1.4710    2.4060 H   0  0
   -1.5120    3.4940   -5.6880 H   0  0
   -2.2290    1.9000   -6.1800 H   0  0
   -3.2010    3.1190   -5.3570 H   0  0
   -0.4080   -3.9000    2.3970 H   0  0
    3.2600   -1.6020    2.3970 H   0  0
    0.9140   -5.9860    2.3970 H   0  0
    4.5610   -3.7010    2.3970 H   0  0
    3.3980   -5.8970    2.3970 H   0  0
  1  2  2  0
  1  3  2  0
  1  4  1  0
  1  5  1  0
  6  4  1  0
  5  7  2  0
  5  8  1  0
  6  9  1  0
  6 10  1  0
  7 11  1  0
  7 12  1  0
  8 13  2  0
  8 14  1  0
  9 15  1  0
  9 16  1  0
  9 17  1  0
 10 18  1  0
 11 19  2  0
 18 20  1  0
 19 21  1  0
 20 22  2  0
 20 23  1  0
 22 24  1  0
 23 25  2  0
 24 26  2  0
 13 19  1  0
 25 26  1  0
  4 27  1  0
  6 28  1  0
 10 29  1  0
 10 30  1  0
 11 31  1  0
 12 32  1  0
 12 33  1  0
 12 34  1  0
 13 35  1  0
 14 36  1  0
 14 37  1  0
 14 38  1  0
 18 39  1  0
 21 40  1  0
 21 41  1  0
 21 42  1  0
 22 43  1  0
 23 44  1  0
 24 45  1  0
 25 46  1  0
 26 47  1  0
M  END
> <Name>
CHEMBL3093458

> <IC50 nM>
95

> <Molecule_ChEMBL_ID>
CHEMBL3093458

> <Smiles>
Cc1cc(C)c(S(=O)(=O)NC(CNc2ccccc2)C(F)(F)F)c(C)c1

$$$$
CHEMBL1911644
  SciTegic08162514323D

 53 55  0  0  1  0            999 V2000
   -5.0430    4.0410    1.4940 F   0  0
   -4.6910    2.9450    0.8260 C   0  0
   -3.3420    2.7250    0.4960 C   0  0
   -5.6680    2.0100    0.4470 C   0  0
   -2.9710    1.5660   -0.2110 C   0  0
   -5.2970    0.8530   -0.2580 C   0  0
   -3.9490    0.6270   -0.5900 C   0  0
   -1.5410    1.3440   -0.5550 C   0  0
   -3.6110   -0.4610   -1.2540 O   0  0
   -1.3100    0.3360    0.5740 C   0  0
   -0.7150    2.6190   -0.3850 C   0  0
   -1.3850    0.7210   -1.9410 C   0  0
   -4.6290   -1.4100   -1.5390 C   0  0
    0.1720    0.0330    0.8010 C   0  0  1  0  0  0
    0.7600    1.1500    1.4260 O   0  0
    0.2310   -1.1450    1.7710 C   0  0
    0.9240   -0.2360   -0.5020 C   0  0
   -0.1270   -2.2950    1.1170 F   0  0
   -0.6330   -0.9240    2.8130 F   0  0
    1.5080   -1.2730    2.2580 F   0  0
    2.3090   -0.7890   -0.2320 C   0  0
    2.6250   -2.1660   -0.3130 N   0  0
    3.4730   -0.0920    0.1290 C   0  0
    3.9690   -2.2950   -0.0040 C   0  0
    4.4400   -1.0290    0.2560 C   0  0
    4.8050   -3.4360    0.0660 C   0  0
    5.7990   -0.8220    0.6070 C   0  0
    6.1640   -3.2420    0.4180 C   0  0
    6.3090    0.4980    0.8810 C   0  0
    6.6640   -1.9450    0.6870 C   0  0
    6.7170    1.5590    1.1030 N   0  0
   -2.5920    3.4450    0.7870 H   0  0
   -6.7050    2.1760    0.6990 H   0  0
   -6.0510    0.1350   -0.5470 H   0  0
   -1.8670   -0.5820    0.3890 H   0  0
   -1.7790    0.6780    1.4960 H   0  0
   -1.1370    3.4530   -0.9430 H   0  0
    0.3070    2.4670   -0.7340 H   0  0
   -0.6660    2.9100    0.6640 H   0  0
   -2.1760    1.0390   -2.6210 H   0  0
   -1.4160   -0.3670   -1.8810 H   0  0
   -0.4320    1.0040   -2.3870 H   0  0
   -4.1870   -2.2170   -2.1230 H   0  0
   -5.1030   -1.6950   -0.6020 H   0  0
   -5.3830   -0.9240   -2.1600 H   0  0
    1.3850    1.5370    0.7930 H   0  0
    1.0060    0.6740   -1.0960 H   0  0
    0.3710   -0.9360   -1.1290 H   0  0
    1.9940   -2.8950   -0.5490 H   0  0
    3.5510    0.9780    0.2710 H   0  0
    4.4080   -4.4220   -0.1430 H   0  0
    6.8150   -4.0960    0.4770 H   0  0
    7.6990   -1.8280    0.9510 H   0  0
  1  2  1  0
  2  3  2  0
  2  4  1  0
  3  5  1  0
  4  6  2  0
  5  7  2  0
  5  8  1  0
  7  9  1  0
  8 10  1  0
  8 11  1  0
  8 12  1  0
  9 13  1  0
 10 14  1  0
 14 15  1  0
 14 16  1  0
 14 17  1  0
 16 18  1  0
 16 19  1  0
 16 20  1  0
 17 21  1  0
 21 22  1  0
 21 23  2  0
 22 24  1  0
 23 25  1  0
 24 26  1  0
 25 27  1  0
 26 28  2  0
 27 29  1  0
 27 30  2  0
 29 31  3  0
  6  7  1  0
 24 25  2  0
 28 30  1  0
  3 32  1  0
  4 33  1  0
  6 34  1  0
 10 35  1  0
 10 36  1  0
 11 37  1  0
 11 38  1  0
 11 39  1  0
 12 40  1  0
 12 41  1  0
 12 42  1  0
 13 43  1  0
 13 44  1  0
 13 45  1  0
 15 46  1  0
 17 47  1  0
 17 48  1  0
 22 49  1  0
 23 50  1  0
 26 51  1  0
 28 52  1  0
 30 53  1  0
M  END
> <Name>
CHEMBL1911644

> <IC50 nM>
5

> <Molecule_ChEMBL_ID>
CHEMBL1911644

> <Smiles>
COc1ccc(F)cc1C(C)(C)CC(O)(Cc1cc2c(C#N)cccc2[nH]1)C(F)(F)F

$$$$
CHEMBL1911645
  SciTegic08162514323D

 58 60  0  0  1  0            999 V2000
    6.5350    0.9040   -3.1720 F   0  0
    5.5860    1.4470   -2.4120 C   0  0
    4.2830    0.9160   -2.4260 C   0  0
    5.8830    2.5510   -1.5960 C   0  0
    3.2790    1.4880   -1.6250 C   0  0
    4.8810    3.1230   -0.7950 C   0  0
    3.5780    2.5960   -0.8050 C   0  0
    1.9060    0.9180   -1.6470 C   0  0
    2.6450    3.1390   -0.0490 O   0  0
    2.1170    0.0680   -0.3930 C   0  0
    1.6680    0.0720   -2.8990 C   0  0
    0.8440    2.0000   -1.4550 C   0  0
    2.8990    3.2520    1.3440 C   0  0
    0.9140   -0.8200   -0.0760 C   0  0  1  0  0  0
   -0.1000   -0.5450   -1.0140 O   0  0
    1.2440   -2.3130   -0.1540 C   0  0
    0.3500   -0.5720    1.3240 C   0  0
    1.5510   -2.6450   -1.4470 F   0  0
    0.1620   -3.0430    0.2620 F   0  0
    2.3180   -2.5840    0.6540 F   0  0
   -1.1640   -0.6020    1.3180 C   0  0
   -1.9630    0.5640    1.2440 N   0  0
   -2.0160   -1.7190    1.3830 C   0  0
   -3.2870    0.1500    1.2640 C   0  0
   -3.2730   -1.2210    1.3480 C   0  0
   -4.4960    0.8810    1.2130 C   0  0
   -4.4820   -1.9650    1.3870 C   0  0
   -5.7190    0.1620    1.2500 C   0  0
   -5.7130   -1.2560    1.3380 C   0  0
   -4.4820   -3.4360    1.4770 C   0  0
   -5.9020   -3.9940    1.5760 C   0  0
    4.0550    0.0660   -3.0550 H   0  0
    6.8810    2.9630   -1.5820 H   0  0
    5.1130    3.9710   -0.1680 H   0  0
    3.0240   -0.5290   -0.4810 H   0  0
    2.3670    0.6970    0.4610 H   0  0
    2.0550   -0.9400   -2.7850 H   0  0
    2.1560    0.5210   -3.7660 H   0  0
    0.6040    0.0000   -3.1190 H   0  0
    1.1900    2.9750   -1.8030 H   0  0
    0.5780    2.0980   -0.4020 H   0  0
   -0.0620    1.7520   -2.0060 H   0  0
    2.8890    2.3260    1.9200 H   0  0
    2.1500    3.9200    1.7730 H   0  0
    3.8750    3.7190    1.4770 H   0  0
   -0.5570    0.2580   -0.7150 H   0  0
    0.7250   -1.3150    2.0270 H   0  0
    0.6930    0.3870    1.7130 H   0  0
   -1.6370    1.5020    1.1870 H   0  0
   -1.7170   -2.7560    1.4490 H   0  0
   -4.4920    1.9590    1.1460 H   0  0
   -6.6580    0.6950    1.2150 H   0  0
   -6.6500   -1.7930    1.3670 H   0  0
   -3.9630   -3.8520    0.6110 H   0  0
   -3.8850   -3.7460    2.3320 H   0  0
   -5.8830   -5.0800    1.6580 H   0  0
   -6.4180   -3.5800    2.4410 H   0  0
   -6.4810   -3.7360    0.6870 H   0  0
  1  2  1  0
  2  3  2  0
  2  4  1  0
  3  5  1  0
  4  6  2  0
  5  7  2  0
  5  8  1  0
  7  9  1  0
  8 10  1  0
  8 11  1  0
  8 12  1  0
  9 13  1  0
 10 14  1  0
 14 15  1  0
 14 16  1  0
 14 17  1  0
 16 18  1  0
 16 19  1  0
 16 20  1  0
 17 21  1  0
 21 22  1  0
 21 23  2  0
 22 24  1  0
 23 25  1  0
 24 26  1  0
 25 27  1  0
 26 28  2  0
 27 29  2  0
 27 30  1  0
 30 31  1  0
  6  7  1  0
 24 25  2  0
 28 29  1  0
  3 32  1  0
  4 33  1  0
  6 34  1  0
 10 35  1  0
 10 36  1  0
 11 37  1  0
 11 38  1  0
 11 39  1  0
 12 40  1  0
 12 41  1  0
 12 42  1  0
 13 43  1  0
 13 44  1  0
 13 45  1  0
 15 46  1  0
 17 47  1  0
 17 48  1  0
 22 49  1  0
 23 50  1  0
 26 51  1  0
 28 52  1  0
 29 53  1  0
 30 54  1  0
 30 55  1  0
 31 56  1  0
 31 57  1  0
 31 58  1  0
M  END
> <Name>
CHEMBL1911645

> <IC50 nM>
28

> <Molecule_ChEMBL_ID>
CHEMBL1911645

> <Smiles>
CCc1cccc2[nH]c(CC(O)(CC(C)(C)c3cc(F)ccc3OC)C(F)(F)F)cc12

$$$$
CHEMBL429466
  SciTegic08162514323D

 64 68  0  0  0  0            999 V2000
    3.1030   -1.4300   -2.4470 S   0  0
    1.7150   -0.4490   -2.5020 C   0  0
    3.5250   -1.0900   -4.0550 C   0  0
    1.5640    0.1540   -3.7660 C   0  0
    0.8140   -0.2700   -1.3730 C   0  0
    2.6020   -0.2170   -4.6490 C   0  0
    0.4320    1.0860   -4.1430 C   0  0
    1.0820   -0.7750   -0.1460 C   0  0
    0.5590    2.3770   -3.4840 N   0  0
    2.2870   -1.3420   -0.0120 O   0  0
    0.1290   -0.6430    1.0020 C   0  0
   -0.5490    3.2440   -3.8460 C   0  0
    2.8160   -1.5760    1.2090 C   0  0
   -1.2850   -0.4240    0.8670 C   0  0
    0.7150   -0.7270    2.3030 C   0  0
   -0.4470    4.5780   -3.1070 C   0  0
    2.1070   -1.2720    2.4220 C   0  0
    4.1150   -2.1310    1.2560 C   0  0
   -2.0020    0.1110    1.9770 C   0  0
   -2.0670   -0.7750   -0.3710 C   0  0
   -0.0530   -0.2790    3.4140 C   0  0
   -1.5180    5.3690   -3.4410 F   0  0
    0.7170    5.2090   -3.4610 F   0  0
   -0.4530    4.3540   -1.7540 F   0  0
    2.7690   -1.5220    3.6700 C   0  0
    4.7460   -2.3690    2.4920 C   0  0
   -3.2790    0.5490    1.8340 N   0  0
   -1.3770    0.1760    3.2440 C   0  0
   -3.3070   -0.2720   -0.5330 C   0  0
   -1.5530   -1.7230   -1.4300 C   0  0
    2.1990   -1.2830    4.8570 O   0  0
    4.0800   -2.0590    3.6930 C   0  0
   -3.9470    0.6350    0.5020 C   0  0
    1.5740   -2.3670    5.5290 C   0  0
    4.6930   -2.2810    4.8630 O   0  0
   -3.8670    2.0780    0.0040 C   0  0
   -5.4160    0.2270    0.6600 C   0  0
    4.3960   -1.5000   -4.5470 H   0  0
   -0.0820    0.3050   -1.5550 H   0  0
    2.6780    0.1330   -5.6700 H   0  0
   -0.5220    0.6310   -3.8670 H   0  0
    0.4200    1.2290   -5.2230 H   0  0
    1.4320    2.8160   -3.8090 H   0  0
   -1.4900    2.7460   -3.6130 H   0  0
   -0.5530    3.3980   -4.9240 H   0  0
    4.6330   -2.3690    0.3400 H   0  0
    0.3160   -0.2500    4.4240 H   0  0
    5.7400   -2.7910    2.5180 H   0  0
   -3.8010    0.8460    2.6370 H   0  0
   -1.9060    0.5640    4.1040 H   0  0
   -3.8690   -0.5200   -1.4240 H   0  0
   -0.6470   -2.2520   -1.1370 H   0  0
   -1.3340   -1.1700   -2.3440 H   0  0
   -2.3150   -2.4650   -1.6620 H   0  0
    1.2280   -2.0140    6.5000 H   0  0
    0.8120   -2.7830    4.8670 H   0  0
    2.3220   -3.1390    5.7010 H   0  0
    4.2560   -2.0160    5.6840 H   0  0
   -2.8380    2.4080   -0.1250 H   0  0
   -4.3500    2.7560    0.7090 H   0  0
   -4.3730    2.1840   -0.9570 H   0  0
   -5.5160   -0.7990    1.0160 H   0  0
   -5.9400    0.3010   -0.2930 H   0  0
   -5.9220    0.8790    1.3710 H   0  0
  1  2  1  0
  1  3  1  0
  2  4  2  0
  2  5  1  0
  3  6  2  0
  4  7  1  0
  5  8  2  0
  7  9  1  0
  8 10  1  0
  8 11  1  0
  9 12  1  0
 10 13  1  0
 11 14  2  0
 11 15  1  0
 12 16  1  0
 13 17  2  0
 13 18  1  0
 14 19  1  0
 14 20  1  0
 15 21  2  0
 16 22  1  0
 16 23  1  0
 16 24  1  0
 17 25  1  0
 18 26  2  0
 19 27  1  0
 19 28  2  0
 20 29  2  0
 20 30  1  0
 25 31  1  0
 25 32  2  0
 27 33  1  0
 31 34  1  0
 32 35  1  0
 33 36  1  0
 33 37  1  0
  4  6  1  0
 15 17  1  0
 21 28  1  0
 26 32  1  0
 29 33  1  0
  3 38  1  0
  5 39  1  0
  6 40  1  0
  7 41  1  0
  7 42  1  0
  9 43  1  0
 12 44  1  0
 12 45  1  0
 18 46  1  0
 21 47  1  0
 26 48  1  0
 27 49  1  0
 28 50  1  0
 29 51  1  0
 30 52  1  0
 30 53  1  0
 30 54  1  0
 34 55  1  0
 34 56  1  0
 34 57  1  0
 35 58  1  0
 36 59  1  0
 36 60  1  0
 36 61  1  0
 37 62  1  0
 37 63  1  0
 37 64  1  0
M  END
> <Name>
CHEMBL429466

> <IC50 nM>
0.9

> <Molecule_ChEMBL_ID>
CHEMBL429466

> <Smiles>
COc1c(O)ccc2c1-c1ccc3c(c1/C(=C/c1sccc1CNCC(F)(F)F)O2)C(C)=CC(C)(C)N3

$$$$
CHEMBL132363
  SciTegic08162514323D

 53 57  0  0  0  0            999 V2000
    3.7090   -5.9470    0.7810 F   0  0
    3.3300   -4.7250    0.4180 C   0  0
    2.0470   -4.2460    0.7720 C   0  0
    4.2130   -3.9060   -0.3240 C   0  0
    1.6330   -2.9380    0.3910 C   0  0
    3.8200   -2.6060   -0.7010 C   0  0
    2.5450   -2.1090   -0.3400 C   0  0
    0.2790   -2.4060    0.7130 C   0  0
    2.2250   -0.8460   -0.6910 O   0  0
   -0.0820   -1.1270    0.2010 C   0  0
   -0.6560   -3.1210    1.5100 C   0  0
    1.0550   -0.2990   -0.3280 C   0  0
   -1.4570   -0.7150    0.2360 C   0  0
   -1.9370   -2.5860    1.7540 C   0  0
    0.9810    1.0530   -0.4000 C   0  0
   -2.3500   -1.3830    1.1270 C   0  0
   -2.0250    0.3540   -0.6560 C   0  0
    2.0820    1.8850   -0.9710 C   0  0
   -3.5900   -0.8890    1.3710 N   0  0
   -3.2300    0.8850   -0.3630 C   0  0
   -1.3400    0.8300   -1.9140 C   0  0
    2.8630    1.3460   -1.9530 N   0  0
    2.3050    3.1990   -0.5000 C   0  0
   -4.0390    0.4300    0.8380 C   0  0
    3.8770    2.0800   -2.4960 C   0  0
    3.3500    3.9610   -1.0550 C   0  0
    1.4550    3.7890    0.5700 C   0  0
   -5.5080    0.3140    0.4140 C   0  0
   -3.9080    1.4790    1.9430 C   0  0
    4.1450    3.3930   -2.0640 C   0  0
    1.4060   -4.9100    1.3320 H   0  0
    5.1920   -4.2740   -0.6020 H   0  0
    4.4980   -1.9840   -1.2680 H   0  0
   -0.4240   -4.0760    1.9530 H   0  0
   -2.6020   -3.1190    2.4220 H   0  0
    0.1230    1.5920   -0.0310 H   0  0
   -4.2340   -1.4040    1.9400 H   0  0
   -3.6390    1.6560   -1.0020 H   0  0
   -2.0330    0.7870   -2.7540 H   0  0
   -0.9510    1.8380   -1.7660 H   0  0
   -0.4960    0.1800   -2.1460 H   0  0
    4.4860    1.6410   -3.2710 H   0  0
    3.5410    4.9670   -0.7130 H   0  0
    1.3690    3.1720    1.4670 H   0  0
    0.4490    3.9570    0.1860 H   0  0
    1.8630    4.7540    0.8690 H   0  0
   -5.6460   -0.4260   -0.3730 H   0  0
   -5.8770    1.2720    0.0430 H   0  0
   -6.1310    0.0230    1.2600 H   0  0
   -2.8750    1.5940    2.2740 H   0  0
   -4.5080    1.2030    2.8110 H   0  0
   -4.2560    2.4510    1.5940 H   0  0
    4.9510    3.9590   -2.5060 H   0  0
  1  2  1  0
  2  3  2  0
  2  4  1  0
  3  5  1  0
  4  6  2  0
  5  7  2  0
  5  8  1  0
  7  9  1  0
  8 10  2  0
  8 11  1  0
  9 12  1  0
 10 13  1  0
 11 14  2  0
 12 15  2  0
 13 16  2  0
 13 17  1  0
 15 18  1  0
 16 19  1  0
 17 20  2  0
 17 21  1  0
 18 22  2  0
 18 23  1  0
 19 24  1  0
 22 25  1  0
 23 26  2  0
 23 27  1  0
 24 28  1  0
 24 29  1  0
 25 30  2  0
  6  7  1  0
 10 12  1  0
 14 16  1  0
 20 24  1  0
 26 30  1  0
  3 31  1  0
  4 32  1  0
  6 33  1  0
 11 34  1  0
 14 35  1  0
 15 36  1  0
 19 37  1  0
 20 38  1  0
 21 39  1  0
 21 40  1  0
 21 41  1  0
 25 42  1  0
 26 43  1  0
 27 44  1  0
 27 45  1  0
 27 46  1  0
 28 47  1  0
 28 48  1  0
 28 49  1  0
 29 50  1  0
 29 51  1  0
 29 52  1  0
 30 53  1  0
M  END
> <Name>
CHEMBL132363

> <IC50 nM>
188

> <Molecule_ChEMBL_ID>
CHEMBL132363

> <Smiles>
CC1=CC(C)(C)Nc2ccc3c(c21)/C(=C/c1ncccc1C)Oc1ccc(F)cc1-3

$$$$
CHEMBL134602
  SciTegic08162514323D

 51 55  0  0  0  0            999 V2000
    3.7190   -5.7250    0.8810 F   0  0
    3.3420   -4.5020    0.5180 C   0  0
    2.0590   -4.0250    0.8730 C   0  0
    4.2250   -3.6860   -0.2230 C   0  0
    1.6430   -2.7170    0.4920 C   0  0
    3.8300   -2.3830   -0.6020 C   0  0
    2.5570   -1.8890   -0.2380 C   0  0
    0.2910   -2.1840    0.8120 C   0  0
    2.2360   -0.6230   -0.5900 O   0  0
   -0.0700   -0.9040    0.3010 C   0  0
   -0.6450   -2.8980    1.6090 C   0  0
    1.0640   -0.0760   -0.2290 C   0  0
   -1.4470   -0.4940    0.3360 C   0  0
   -1.9280   -2.3650    1.8550 C   0  0
    0.9920    1.2750   -0.2990 C   0  0
   -2.3380   -1.1620    1.2280 C   0  0
   -2.0160    0.5740   -0.5570 C   0  0
    2.0960    2.1090   -0.8710 C   0  0
   -3.5800   -0.6660    1.4710 N   0  0
   -3.2190    1.1070   -0.2620 C   0  0
   -1.3280    1.0510   -1.8150 C   0  0
    2.8400    1.6370   -1.9690 C   0  0
    2.3910    3.3670   -0.3130 C   0  0
   -4.0290    0.6500    0.9370 C   0  0
    3.8750    2.4220   -2.5040 C   0  0
    3.4260    4.1500   -0.8500 C   0  0
   -5.4960    0.5370    0.5160 C   0  0
   -3.8970    1.7010    2.0430 C   0  0
    4.1680    3.6780   -1.9450 C   0  0
    1.4180   -4.6880    1.4340 H   0  0
    5.2010   -4.0530   -0.5020 H   0  0
    4.5100   -1.7620   -1.1660 H   0  0
   -0.4120   -3.8550    2.0530 H   0  0
   -2.5900   -2.8960    2.5230 H   0  0
    0.1330    1.8150    0.0700 H   0  0
   -4.2230   -1.1840    2.0390 H   0  0
   -3.6270    1.8790   -0.9000 H   0  0
   -2.0250    1.0180   -2.6520 H   0  0
   -0.9320    2.0550   -1.6620 H   0  0
   -0.4920    0.3950   -2.0510 H   0  0
    2.6210    0.6740   -2.4040 H   0  0
    1.8240    3.7380    0.5290 H   0  0
    4.4470    2.0590   -3.3460 H   0  0
    3.6520    5.1150   -0.4200 H   0  0
   -5.6370   -0.2030   -0.2740 H   0  0
   -5.8650    1.4920    0.1430 H   0  0
   -6.1190    0.2460    1.3590 H   0  0
   -2.8650    1.8150    2.3750 H   0  0
   -4.4980    1.4260    2.9100 H   0  0
   -4.2440    2.6740    1.6930 H   0  0
    4.9650    4.2790   -2.3580 H   0  0
  1  2  1  0
  2  3  2  0
  2  4  1  0
  3  5  1  0
  4  6  2  0
  5  7  2  0
  5  8  1  0
  7  9  1  0
  8 10  2  0
  8 11  1  0
  9 12  1  0
 10 13  1  0
 11 14  2  0
 12 15  2  0
 13 16  2  0
 13 17  1  0
 15 18  1  0
 16 19  1  0
 17 20  2  0
 17 21  1  0
 18 22  2  0
 18 23  1  0
 19 24  1  0
 22 25  1  0
 23 26  2  0
 24 27  1  0
 24 28  1  0
 25 29  2  0
  6  7  1  0
 10 12  1  0
 14 16  1  0
 20 24  1  0
 26 29  1  0
  3 30  1  0
  4 31  1  0
  6 32  1  0
 11 33  1  0
 14 34  1  0
 15 35  1  0
 19 36  1  0
 20 37  1  0
 21 38  1  0
 21 39  1  0
 21 40  1  0
 22 41  1  0
 23 42  1  0
 25 43  1  0
 26 44  1  0
 27 45  1  0
 27 46  1  0
 27 47  1  0
 28 48  1  0
 28 49  1  0
 28 50  1  0
 29 51  1  0
M  END
> <Name>
CHEMBL134602

> <IC50 nM>
2050

> <Molecule_ChEMBL_ID>
CHEMBL134602

> <Smiles>
CC1=CC(C)(C)Nc2ccc3c(c21)/C(=C/c1ccccc1)Oc1ccc(F)cc1-3

$$$$
CHEMBL2086965
  SciTegic08162514323D

 37 39  0  0  0  0            999 V2000
    6.3540   -3.3150    0.6680 Br  0  0
    4.8180   -3.5270   -0.4060 C   0  0
    3.7400   -2.6330   -0.2770 C   0  0
    4.7460   -4.5780   -1.3360 C   0  0
    2.5940   -2.7870   -1.0800 C   0  0
    3.6020   -4.7340   -2.1350 C   0  0
    2.5240   -3.8420   -2.0120 C   0  0
    1.4550   -1.8300   -0.9340 C   0  0
    1.4550   -4.0000   -2.7680 O   0  0
    1.5450   -0.8790   -0.0800 N   0  0
    0.6290   -0.0900    0.0510 N   0  0
    0.7250    0.9220    0.9610 C   0  0
    1.7170    1.0410    1.6410 O   0  0
   -0.4980    1.7560    0.9530 C   0  0
   -0.3930    3.1700    0.9100 C   0  0
   -1.7700    1.1330    0.9860 C   0  0
    0.8110    3.7620    0.8810 O   0  0
   -1.5610    3.9670    0.8990 C   0  0
   -2.9410    1.9280    0.9750 C   0  0
   -2.8380    3.3540    0.9300 C   0  0
   -4.2210    1.3140    1.0100 C   0  0
   -4.0120    4.1470    0.9160 C   0  0
   -5.3870    2.1150    0.9960 C   0  0
   -5.2830    3.5250    0.9490 C   0  0
    3.7850   -1.8200    0.4360 H   0  0
    5.5670   -5.2750   -1.4490 H   0  0
    3.5510   -5.5450   -2.8480 H   0  0
    0.5610   -1.9200   -1.5330 H   0  0
    1.4280   -4.7310   -3.4000 H   0  0
   -0.1930   -0.1880   -0.5100 H   0  0
   -1.8380    0.0550    1.0200 H   0  0
    1.6060    3.2150    0.8340 H   0  0
   -1.4650    5.0450    0.8670 H   0  0
   -4.3200    0.2400    1.0450 H   0  0
   -3.9550    5.2270    0.8790 H   0  0
   -6.3590    1.6480    1.0240 H   0  0
   -6.1780    4.1310    0.9380 H   0  0
  1  2  1  0
  2  3  2  0
  2  4  1  0
  3  5  1  0
  4  6  2  0
  5  7  2  0
  5  8  1  0
  7  9  1  0
  8 10  2  0
 10 11  1  0
 11 12  1  0
 12 13  2  0
 12 14  1  0
 14 15  2  0
 14 16  1  0
 15 17  1  0
 15 18  1  0
 16 19  2  0
 18 20  2  0
 19 21  1  0
 20 22  1  0
 21 23  2  0
 22 24  2  0
  6  7  1  0
 19 20  1  0
 23 24  1  0
  3 25  1  0
  4 26  1  0
  6 27  1  0
  8 28  1  0
  9 29  1  0
 11 30  1  0
 16 31  1  0
 17 32  1  0
 18 33  1  0
 21 34  1  0
 22 35  1  0
 23 36  1  0
 24 37  1  0
M  END
> <Name>
CHEMBL2086965

> <IC50 nM>
100000

> <Molecule_ChEMBL_ID>
CHEMBL2086965

> <Smiles>
O=C(N/N=C/c1cc(Br)ccc1O)c1cc2ccccc2cc1O

$$$$
CHEMBL2087282
  SciTegic08162514323D

 57 60  0  0  0  0            999 V2000
    1.6900   -3.3440   -3.2070 O   0  0
    2.8850   -3.4100   -3.0390 C   0  0
    3.5960   -4.5210   -3.1990 O   0  0
    3.6780   -2.1990   -2.6230 C   0  0
    2.9590   -1.3830   -1.6090 C   0  0
    2.4010   -0.1440   -1.9710 C   0  0
    2.8400   -1.8480   -0.2890 C   0  0
    1.7230    0.6290   -1.0140 C   0  0
    2.1620   -1.0760    0.6720 C   0  0
    1.6020    0.1660    0.3110 C   0  0
    0.9420    0.9180    1.2440 N   0  0
    0.3810    2.2330    0.9010 C   0  0
    0.7810    0.4140    2.6170 C   0  0
   -0.8690    2.1060    0.1100 C   0  0
    2.0450    0.5310    3.3930 C   0  0
   -0.9920    2.7700   -1.1250 C   0  0
   -1.9330    1.3240    0.5920 C   0  0
    2.5760   -0.5920    4.0490 C   0  0
    2.7090    1.7700    3.4710 C   0  0
   -2.1780    2.6490   -1.8730 C   0  0
   -3.1150    1.2050   -0.1560 C   0  0
    3.7700   -0.4800    4.7830 C   0  0
    3.9030    1.8810    4.2050 C   0  0
   -3.2420    1.8670   -1.3910 C   0  0
    4.4320    0.7580    4.8620 C   0  0
   -4.3510    1.7540   -2.0940 O   0  0
   -4.9690    0.5900   -2.0940 C   0  0
   -6.3730    0.5350   -2.0940 C   0  0
   -4.2250   -0.6030   -2.0940 C   0  0
   -7.0330   -0.7050   -2.0940 C   0  0
   -4.8830   -1.8460   -2.0940 C   0  0
   -6.2870   -1.8960   -2.0940 C   0  0
    3.1470   -5.3360   -3.4650 H   0  0
    3.8990   -1.5840   -3.4960 H   0  0
    4.6430   -2.5060   -2.2250 H   0  0
    2.4900    0.2170   -2.9860 H   0  0
    3.2680   -2.7990   -0.0060 H   0  0
    1.2990    1.5780   -1.3100 H   0  0
    2.0800   -1.4490    1.6820 H   0  0
    1.1170    2.7950    0.3260 H   0  0
    0.1780    2.7870    1.8170 H   0  0
    0.4750   -0.6310    2.5800 H   0  0
   -0.0060    0.9770    3.1170 H   0  0
   -0.1800    3.3730   -1.5020 H   0  0
   -1.8460    0.8110    1.5390 H   0  0
    2.0700   -1.5450    3.9940 H   0  0
    2.3070    2.6370    2.9690 H   0  0
   -2.2660    3.1600   -2.8200 H   0  0
   -3.9300    0.6020    0.2190 H   0  0
    4.1760   -1.3440    5.2870 H   0  0
    4.4120    2.8320    4.2640 H   0  0
    5.3500    0.8440    5.4240 H   0  0
   -6.9510    1.4490   -2.0940 H   0  0
   -3.1440   -0.5680   -2.0940 H   0  0
   -8.1110   -0.7440   -2.0940 H   0  0
   -4.3090   -2.7600   -2.0940 H   0  0
   -6.7930   -2.8510   -2.0940 H   0  0
  1  2  2  0
  2  3  1  0
  2  4  1  0
  4  5  1  0
  5  6  2  0
  5  7  1  0
  6  8  1  0
  7  9  2  0
  8 10  2  0
 10 11  1  0
 11 12  1  0
 11 13  1  0
 12 14  1  0
 13 15  1  0
 14 16  2  0
 14 17  1  0
 15 18  2  0
 15 19  1  0
 16 20  1  0
 17 21  2  0
 18 22  1  0
 19 23  2  0
 20 24  2  0
 22 25  2  0
 24 26  1  0
 26 27  1  0
 27 28  2  0
 27 29  1  0
 28 30  1  0
 29 31  2  0
 30 32  2  0
  9 10  1  0
 21 24  1  0
 23 25  1  0
 31 32  1  0
  3 33  1  0
  4 34  1  0
  4 35  1  0
  6 36  1  0
  7 37  1  0
  8 38  1  0
  9 39  1  0
 12 40  1  0
 12 41  1  0
 13 42  1  0
 13 43  1  0
 16 44  1  0
 17 45  1  0
 18 46  1  0
 19 47  1  0
 20 48  1  0
 21 49  1  0
 22 50  1  0
 23 51  1  0
 25 52  1  0
 28 53  1  0
 29 54  1  0
 30 55  1  0
 31 56  1  0
 32 57  1  0
M  END
> <Name>
CHEMBL2087282

> <IC50 nM>
1910

> <Molecule_ChEMBL_ID>
CHEMBL2087282

> <Smiles>
O=C(O)Cc1ccc(N(Cc2ccccc2)Cc2ccc(Oc3ccccc3)cc2)cc1

$$$$
CHEMBL2087284
  SciTegic08162514323D

 57 60  0  0  0  0            999 V2000
   -0.6680   -0.8140    2.5210 Br  0  0
    0.9080   -0.7050    1.4750 C   0  0
    1.3500    0.4960    0.8530 C   0  0
    1.6600   -1.8870    1.3200 C   0  0
    0.6230    1.6600    0.9960 N   0  0
    2.5450    0.4860    0.0840 C   0  0
    2.8380   -1.8890    0.5610 C   0  0
    0.5550    2.3560    2.2890 C   0  0
   -0.0980    2.2230   -0.1540 C   0  0
    3.2320    2.0250   -0.7870 Br  0  0
    3.2770   -0.7070   -0.0550 C   0  0
    3.6190   -3.1430    0.4060 C   0  0
    1.1290    3.7250    2.2050 C   0  0
   -0.8220    1.1720   -0.9120 C   0  0
    2.9750   -4.0980   -0.5630 C   0  0
    2.5210    3.9080    2.2500 C   0  0
    0.2770    4.8380    2.0800 C   0  0
   -0.2640    0.6410   -2.0880 C   0  0
   -2.0680    0.7070   -0.4550 C   0  0
    2.3240   -5.0370   -0.1680 O   0  0
    3.1780   -3.8240   -1.8480 O   0  0
    3.0640    5.2030    2.1720 C   0  0
    0.8200    6.1310    2.0020 C   0  0
   -0.9510   -0.3550   -2.8050 C   0  0
   -2.7540   -0.2890   -1.1740 C   0  0
    4.3830    5.3790    2.2150 F   0  0
    2.2130    6.3150    2.0470 C   0  0
   -2.1970   -0.8220   -2.3500 C   0  0
   -2.8420   -1.7540   -3.0240 O   0  0
   -3.5220   -2.6520   -2.3400 C   0  0
   -4.7480   -3.1370   -2.8320 C   0  0
   -3.0270   -3.1310   -1.1130 C   0  0
   -5.4750   -4.0940   -2.1040 C   0  0
   -3.7520   -4.0880   -0.3830 C   0  0
   -4.9770   -4.5700   -0.8790 C   0  0
    1.3380   -2.8070    1.7870 H   0  0
    1.1020    1.7790    3.0370 H   0  0
   -0.4840    2.4160    2.6090 H   0  0
    0.6130    2.7210   -0.8130 H   0  0
   -0.8070    2.9710    0.1990 H   0  0
    4.1880   -0.7320   -0.6370 H   0  0
    4.6290   -2.9020    0.0720 H   0  0
    3.7340   -3.6210    1.3790 H   0  0
    3.1780    3.0550    2.3480 H   0  0
   -0.7930    4.7030    2.0450 H   0  0
    0.6910    0.9920   -2.4450 H   0  0
   -2.5040    1.1110    0.4470 H   0  0
    3.7660   -3.0940   -2.0880 H   0  0
    0.1640    6.9850    1.9060 H   0  0
   -0.5200   -0.7600   -3.7070 H   0  0
   -3.7110   -0.6430   -0.8180 H   0  0
    2.6250    7.3130    1.9840 H   0  0
   -5.1330   -2.7710   -3.7740 H   0  0
   -2.0860   -2.7640   -0.7310 H   0  0
   -6.4140   -4.4630   -2.4840 H   0  0
   -3.3690   -4.4550    0.5570 H   0  0
   -5.5330   -5.3050   -0.3180 H   0  0
  1  2  1  0
  2  3  2  0
  2  4  1  0
  3  5  1  0
  3  6  1  0
  4  7  2  0
  5  8  1  0
  5  9  1  0
  6 10  1  0
  6 11  2  0
  7 12  1  0
  8 13  1  0
  9 14  1  0
 12 15  1  0
 13 16  2  0
 13 17  1  0
 14 18  2  0
 14 19  1  0
 15 20  2  0
 15 21  1  0
 16 22  1  0
 17 23  2  0
 18 24  1  0
 19 25  2  0
 22 26  1  0
 22 27  2  0
 24 28  2  0
 28 29  1  0
 29 30  1  0
 30 31  2  0
 30 32  1  0
 31 33  1  0
 32 34  2  0
 33 35  2  0
  7 11  1  0
 23 27  1  0
 25 28  1  0
 34 35  1  0
  4 36  1  0
  8 37  1  0
  8 38  1  0
  9 39  1  0
  9 40  1  0
 11 41  1  0
 12 42  1  0
 12 43  1  0
 16 44  1  0
 17 45  1  0
 18 46  1  0
 19 47  1  0
 21 48  1  0
 23 49  1  0
 24 50  1  0
 25 51  1  0
 27 52  1  0
 31 53  1  0
 32 54  1  0
 33 55  1  0
 34 56  1  0
 35 57  1  0
M  END
> <Name>
CHEMBL2087284

> <IC50 nM>
820

> <Molecule_ChEMBL_ID>
CHEMBL2087284

> <Smiles>
O=C(O)Cc1cc(Br)c(N(Cc2ccc(Oc3ccccc3)cc2)Cc2cccc(F)c2)c(Br)c1

$$$$
CHEMBL2087298
  SciTegic08162514323D

 60 63  0  0  0  0            999 V2000
    1.0180    3.9100    1.1250 Br  0  0
   -0.4100    2.7460    0.6720 C   0  0
   -0.4000    1.9160   -0.4830 C   0  0
   -1.5200    2.7270    1.5370 C   0  0
    0.6820    1.9260   -1.3380 N   0  0
   -1.5160    1.0720   -0.7440 C   0  0
   -2.6150    1.8940    1.2730 C   0  0
    0.6210    2.6330   -2.6250 C   0  0
    1.9180    1.2210   -0.9690 C   0  0
   -1.6150   -0.0780   -2.2480 Br  0  0
   -2.6130    1.0720    0.1370 C   0  0
   -3.7810    1.8830    2.1950 C   0  0
    0.4590    4.1000   -2.4360 C   0  0
    1.6290   -0.0720   -0.2970 C   0  0
   -3.9120    0.5740    2.9280 C   0  0
   -0.8180    4.6410   -2.2030 C   0  0
    1.5800    4.9450   -2.4880 C   0  0
    1.5430   -0.1350    1.1050 C   0  0
    1.4430   -1.2380   -1.0630 C   0  0
   -2.9340   -0.0470    3.2710 O   0  0
   -5.1600    0.1760    3.1520 O   0  0
   -0.9730    6.0270   -2.0260 C   0  0
    1.4280    6.3300   -2.3090 C   0  0
    1.2720   -1.3580    1.7400 C   0  0
    1.1720   -2.4610   -0.4260 C   0  0
   -2.1820    6.5410   -1.8090 F   0  0
    0.1500    6.8710   -2.0780 C   0  0
    2.4900    7.1310   -2.3560 F   0  0
    1.0840   -2.5250    0.9760 C   0  0
    0.8300   -3.6720    1.5720 O   0  0
    1.3110   -4.7740    1.0290 C   0  0
    0.5640   -5.9670    1.0470 C   0  0
    2.5800   -4.7540    0.4260 C   0  0
    1.0880   -7.1350    0.4630 C   0  0
   -0.7810   -6.0020    1.6820 C   0  0
    3.1040   -5.9220   -0.1580 C   0  0
    2.3570   -7.1120   -0.1390 C   0  0
   -1.0610   -4.7770    2.2300 F   0  0
   -0.7970   -6.9590    2.6640 F   0  0
   -1.7250   -6.3050    0.7340 F   0  0
   -1.5410    3.3520    2.4200 H   0  0
   -0.2150    2.2480   -3.2070 H   0  0
    1.5350    2.4390   -3.1840 H   0  0
    2.5060    1.8530   -0.3050 H   0  0
    2.5080    1.0390   -1.8670 H   0  0
   -3.4690    0.4390   -0.0490 H   0  0
   -3.6860    2.6990    2.9120 H   0  0
   -4.6910    2.0860    1.6330 H   0  0
   -1.6820    3.9920   -2.1600 H   0  0
    2.5630    4.5290   -2.6680 H   0  0
    1.6860    0.7580    1.6990 H   0  0
    1.5080   -1.1970   -2.1410 H   0  0
   -5.3150   -0.6580    3.6170 H   0  0
    1.2050   -1.4000    2.8160 H   0  0
    1.0290   -3.3540   -1.0180 H   0  0
    0.0310    7.9380   -1.9420 H   0  0
    3.1580   -3.8420    0.4080 H   0  0
    0.5200   -8.0530    0.4750 H   0  0
    4.0800   -5.9020   -0.6190 H   0  0
    2.7600   -8.0080   -0.5860 H   0  0
  1  2  1  0
  2  3  2  0
  2  4  1  0
  3  5  1  0
  3  6  1  0
  4  7  2  0
  5  8  1  0
  5  9  1  0
  6 10  1  0
  6 11  2  0
  7 12  1  0
  8 13  1  0
  9 14  1  0
 12 15  1  0
 13 16  2  0
 13 17  1  0
 14 18  2  0
 14 19  1  0
 15 20  2  0
 15 21  1  0
 16 22  1  0
 17 23  2  0
 18 24  1  0
 19 25  2  0
 22 26  1  0
 22 27  2  0
 23 28  1  0
 24 29  2  0
 29 30  1  0
 30 31  1  0
 31 32  2  0
 31 33  1  0
 32 34  1  0
 32 35  1  0
 33 36  2  0
 34 37  2  0
 35 38  1  0
 35 39  1  0
 35 40  1  0
  7 11  1  0
 23 27  1  0
 25 29  1  0
 36 37  1  0
  4 41  1  0
  8 42  1  0
  8 43  1  0
  9 44  1  0
  9 45  1  0
 11 46  1  0
 12 47  1  0
 12 48  1  0
 16 49  1  0
 17 50  1  0
 18 51  1  0
 19 52  1  0
 21 53  1  0
 24 54  1  0
 25 55  1  0
 27 56  1  0
 33 57  1  0
 34 58  1  0
 36 59  1  0
 37 60  1  0
M  END
> <Name>
CHEMBL2087298

> <IC50 nM>
298

> <Molecule_ChEMBL_ID>
CHEMBL2087298

> <Smiles>
O=C(O)Cc1cc(Br)c(N(Cc2ccc(Oc3ccccc3C(F)(F)F)cc2)Cc2cc(F)cc(F)c2)c(Br)c1

$$$$
CHEMBL235689
  SciTegic08162514323D

 49 50  0  0  1  0            999 V2000
    1.7130   -6.3950   -0.7150 Cl  0  0
    0.4360   -5.2560   -0.7720 C   0  0
   -0.8950   -5.6990   -0.8540 C   0  0
    0.7170   -3.8770   -0.7350 C   0  0
   -1.9390   -4.7580   -0.9010 C   0  0
   -0.3340   -2.9390   -0.7810 C   0  0
   -3.3070   -5.2030   -0.9850 C   0  0
   -1.6680   -3.3810   -0.8650 C   0  0
   -0.0290   -1.4800   -0.7440 C   0  0
   -4.4080   -5.5630   -1.0530 N   0  0
    0.1580   -0.9820    0.6890 C   0  0  2  0  0  0
    1.3970   -1.4610    1.1640 O   0  0
   -0.9390   -1.4750    1.6350 C   0  0
    0.1640    0.5430    0.7870 C   0  0
   -0.8220   -2.8300    1.8030 F   0  0
   -2.1680   -1.1840    1.0980 F   0  0
   -0.8110   -0.8500    2.8480 F   0  0
    1.0370    1.1990   -0.2830 C   0  0
    0.9880    2.5470    0.3460 C   0  0
    2.4610    0.6410   -0.3090 C   0  0
    0.3770    1.1990   -1.6640 C   0  0
   -0.1600    3.3520    0.2170 C   0  0
    2.0980    3.0140    1.0720 C   0  0
   -1.2070    2.9240   -0.4630 O   0  0
   -0.1910    4.6230    0.8160 C   0  0
    2.0630    4.2870    1.6700 C   0  0
   -2.3930    3.7030   -0.4240 C   0  0
    0.9180    5.0900    1.5430 C   0  0
    3.1130    4.7290    2.3570 F   0  0
   -1.1130   -6.7560   -0.8810 H   0  0
    1.7420   -3.5310   -0.6720 H   0  0
   -2.4710   -2.6540   -0.9010 H   0  0
    0.8590   -1.2790   -1.3420 H   0  0
   -0.8280   -0.9300   -1.2420 H   0  0
    1.9160   -1.7250    0.3910 H   0  0
   -0.8520    0.9380    0.7520 H   0  0
    0.4710    0.8650    1.7830 H   0  0
    3.1640    1.3440   -0.7560 H   0  0
    2.5000   -0.2830   -0.8850 H   0  0
    2.8050    0.4200    0.7010 H   0  0
    0.7890    0.4220   -2.3090 H   0  0
    0.5230    2.1580   -2.1600 H   0  0
   -0.6950    1.0270   -1.5780 H   0  0
    2.9810    2.3970    1.1720 H   0  0
   -1.0680    5.2440    0.7210 H   0  0
   -3.1500    3.2030   -1.0260 H   0  0
   -2.6460    3.8830    0.6210 H   0  0
   -2.1820    4.6680   -0.8850 H   0  0
    0.8870    6.0690    2.0000 H   0  0
  1  2  1  0
  2  3  2  0
  2  4  1  0
  3  5  1  0
  4  6  2  0
  5  7  1  0
  5  8  2  0
  6  9  1  0
  7 10  3  0
  9 11  1  0
 11 12  1  0
 11 13  1  0
 11 14  1  0
 13 15  1  0
 13 16  1  0
 13 17  1  0
 14 18  1  0
 18 19  1  0
 18 20  1  0
 18 21  1  0
 19 22  2  0
 19 23  1  0
 22 24  1  0
 22 25  1  0
 23 26  2  0
 24 27  1  0
 25 28  2  0
 26 29  1  0
  6  8  1  0
 26 28  1  0
  3 30  1  0
  4 31  1  0
  8 32  1  0
  9 33  1  0
  9 34  1  0
 12 35  1  0
 14 36  1  0
 14 37  1  0
 20 38  1  0
 20 39  1  0
 20 40  1  0
 21 41  1  0
 21 42  1  0
 21 43  1  0
 23 44  1  0
 25 45  1  0
 27 46  1  0
 27 47  1  0
 27 48  1  0
 28 49  1  0
M  END
> <Name>
CHEMBL235689

> <IC50 nM>
27

> <Molecule_ChEMBL_ID>
CHEMBL235689

> <Smiles>
COc1ccc(F)cc1C(C)(C)CC(O)(Cc1cc(Cl)cc(C#N)c1)C(F)(F)F

$$$$
CHEMBL2022865
  SciTegic08162514323D

 86 92  0  0  1  0            999 V2000
   -9.6080    2.1720   -1.0640 S   0  0
   -8.0630    1.6040   -0.6310 C   0  0
   -9.2830    2.0330   -2.7110 C   0  0
   -7.1470    1.2790    0.7520 S   0  0
   -7.3110    1.3140   -1.7420 N   0  0
   -7.9860    1.5510   -2.9140 C   0  0
  -10.3150    2.4040   -3.7560 C   0  0
   -6.5740   -0.3480    0.4570 C   0  0
   -7.3260    1.2930   -4.2520 C   0  0
   -5.1890   -0.2910   -0.1350 C   0  0
   -5.0200   -0.3750   -1.3280 O   0  0
   -4.0210   -0.1290    0.8090 C   0  0  2  0  0  0
   -4.0370    1.2170    1.2560 O   0  0
   -2.6450   -0.4900    0.2030 C   0  0  2  0  0  0
   -4.0840   -1.0590    2.0410 C   0  0
   -1.7690   -0.5760    1.4710 C   0  0  1  0  0  0
   -2.0080    0.5140   -0.7770 C   0  0
   -2.7930   -1.8750   -0.4530 C   0  0
   -2.6390   -1.4300    2.3970 C   0  0
   -0.3590   -1.0980    1.1450 C   0  0  1  0  0  0
   -0.5310    0.1740   -1.0940 C   0  0  1  0  0  0
    0.3030   -0.0590    0.1970 C   0  0  2  0  0  0
    0.4940   -1.4000    2.4020 C   0  0
   -0.4670   -0.9550   -1.9430 O   0  0
    1.8130   -0.3650   -0.0100 C   0  0  2  0  0  0
    1.6720   -0.4390    2.6090 C   0  0
    2.5100   -0.2640    1.3570 C   0  0
    2.4510    0.5820   -1.0740 C   0  0
    2.0040   -1.8160   -0.4800 C   0  0
    3.8380   -0.0290    1.4470 C   0  0
    3.9750    0.5740   -1.0120 C   0  0
    4.5680    0.2930    0.2070 C   0  0
    4.8500    0.8360   -2.0630 C   0  0
    5.8870    0.4040   -0.0920 N   0  0
    6.0350    0.7150   -1.4080 N   0  0
    6.9920    0.2170    0.8610 C   0  0
    7.8560    1.4900    0.9510 C   0  0
    7.8440   -1.0100    0.4750 C   0  0
    9.0470    1.2990    1.9020 C   0  0
    9.0370   -1.1910    1.4240 C   0  0
    9.8930    0.0800    1.5100 C   0  0
  -11.2640    2.7500   -3.3460 H   0  0
  -10.5200    1.5390   -4.3870 H   0  0
   -9.9200    3.1950   -4.3930 H   0  0
   -7.2500   -0.8520   -0.2320 H   0  0
   -6.5550   -0.9000    1.3950 H   0  0
   -7.0290    0.2460   -4.3130 H   0  0
   -8.0020    1.5880   -5.0550 H   0  0
   -6.4260    1.9000   -4.3340 H   0  0
   -4.8050    1.3140    1.8400 H   0  0
   -4.5940   -0.6040    2.8790 H   0  0
   -4.6290   -1.9630    1.8130 H   0  0
   -1.6700    0.4020    1.9200 H   0  0
   -2.5960    0.5780   -1.6950 H   0  0
   -2.0290    1.5140   -0.3460 H   0  0
   -3.3830   -2.5550    0.1620 H   0  0
   -1.8180   -2.3320   -0.6150 H   0  0
   -3.2870   -1.7890   -1.4220 H   0  0
   -2.4180   -1.2480    3.4380 H   0  0
   -2.4670   -2.4810    2.2110 H   0  0
   -0.4590   -2.0430    0.6090 H   0  0
   -0.1090    1.0040   -1.6620 H   0  0
    0.2680    0.9060    0.7110 H   0  0
   -0.1170   -1.4220    3.3030 H   0  0
    0.9000   -2.4080    2.3090 H   0  0
    0.0470   -0.6950   -2.7250 H   0  0
    1.2950    0.5370    2.9160 H   0  0
    2.2930   -0.7990    3.4300 H   0  0
    2.1230    1.6070   -0.9000 H   0  0
    2.1230    0.3180   -2.0800 H   0  0
    3.0550   -2.1040   -0.4940 H   0  0
    1.6080   -1.9490   -1.4860 H   0  0
    1.4770   -2.5080    0.1800 H   0  0
    4.3540   -0.0680    2.3970 H   0  0
    4.6840    1.0740   -3.1050 H   0  0
    6.5530    0.0310    1.8420 H   0  0
    7.2540    2.3340    1.2910 H   0  0
    8.2330    1.7600   -0.0370 H   0  0
    7.2330   -1.9140    0.4820 H   0  0
    8.2190   -0.9000   -0.5450 H   0  0
    8.6800    1.1720    2.9200 H   0  0
    9.6680    2.1950    1.9060 H   0  0
    8.6700   -1.4470    2.4200 H   0  0
    9.6510   -2.0310    1.0940 H   0  0
   10.6990   -0.0630    2.2290 H   0  0
   10.3650    0.2620    0.5430 H   0  0
  1  2  1  0
  1  3  1  0
  2  4  1  0
  2  5  2  0
  3  6  2  0
  3  7  1  0
  4  8  1  0
  6  9  1  0
  8 10  1  0
 10 11  2  0
 10 12  1  0
 12 13  1  0
 12 14  1  0
 12 15  1  0
 14 16  1  0
 14 17  1  0
 14 18  1  0
 15 19  1  0
 16 20  1  0
 17 21  1  0
 22 20  1  0
 20 23  1  0
 21 24  1  0
 22 25  1  0
 23 26  1  0
 25 27  1  0
 25 28  1  0
 25 29  1  0
 27 30  2  0
 28 31  1  0
 30 32  1  0
 31 33  1  0
 32 34  1  0
 33 35  2  0
 34 36  1  0
 36 37  1  0
 36 38  1  0
 37 39  1  0
 38 40  1  0
 39 41  1  0
  5  6  1  0
 16 19  1  0
 21 22  1  0
 26 27  1  0
 31 32  2  0
 34 35  1  0
 40 41  1  0
  7 42  1  0
  7 43  1  0
  7 44  1  0
  8 45  1  0
  8 46  1  0
  9 47  1  0
  9 48  1  0
  9 49  1  0
 13 50  1  0
 15 51  1  0
 15 52  1  0
 16 53  1  0
 17 54  1  0
 17 55  1  0
 18 56  1  0
 18 57  1  0
 18 58  1  0
 19 59  1  0
 19 60  1  0
 20 61  1  0
 21 62  1  0
 22 63  1  0
 23 64  1  0
 23 65  1  0
 24 66  1  0
 26 67  1  0
 26 68  1  0
 28 69  1  0
 28 70  1  0
 29 71  1  0
 29 72  1  0
 29 73  1  0
 30 74  1  0
 33 75  1  0
 36 76  1  0
 37 77  1  0
 37 78  1  0
 38 79  1  0
 38 80  1  0
 39 81  1  0
 39 82  1  0
 40 83  1  0
 40 84  1  0
 41 85  1  0
 41 86  1  0
M  END
> <Name>
CHEMBL2022865

> <IC50 nM>
2.8

> <Molecule_ChEMBL_ID>
CHEMBL2022865

> <Smiles>
Cc1nc(SCC(=O)[C@@]2(O)CC[C@H]3[C@@H]4CCC5=Cc6c(cnn6C6CCCCC6)C[C@]5(C)[C@H]4[C@@H](O)C[C@@]32C)sc1C

$$$$
CHEMBL2023616
  SciTegic08162514323D

 82 89  0  0  1  0            999 V2000
    6.8890    0.2230   -1.6370 S   0  0
    7.0840    0.8420   -0.0760 C   0  0
    5.5920   -0.9340   -1.4300 C   0  0
    6.4900    0.6500    1.1620 N   0  0
    8.1470    1.7890   -0.1620 C   0  0
    4.2750   -0.2050   -1.3790 C   0  0
    6.9080    1.3500    2.2830 C   0  0
    8.5820    2.5000    0.9430 N   0  0
    4.2290    0.9820   -1.1640 O   0  0
    3.0140   -1.0040   -1.6040 C   0  0  2  0  0  0
    7.9790    2.2970    2.1700 C   0  0
    6.2870    1.1410    3.5410 C   0  0
    2.8200   -1.0720   -3.0080 O   0  0
    1.7500   -0.4280   -0.9240 C   0  0  2  0  0  0
    3.0780   -2.4400   -1.0270 C   0  0
    8.4040    3.0120    3.3160 C   0  0
    6.7230    1.8610    4.6760 C   0  0
    0.8260   -1.6620   -1.0120 C   0  0  1  0  0  0
    1.0640    0.8220   -1.5220 C   0  0
    2.1310   -0.1330    0.5410 C   0  0
    1.6990   -2.7660   -0.4280 C   0  0
    7.7770    2.7930    4.5640 C   0  0
   -0.5250   -1.2700   -0.4060 C   0  0  1  0  0  0
   -0.2540    0.4960   -2.2560 C   0  0  1  0  0  0
   -1.2770   -0.3710   -1.4300 C   0  0  2  0  0  0
   -1.3980   -2.4530   -0.0160 C   0  0
   -0.7830    1.6950   -2.7720 O   0  0
   -2.5370    0.2870   -0.7620 C   0  0  2  0  0  0
   -2.6390   -1.9360    0.7130 C   0  0
   -3.3480   -0.7890    0.0100 C   0  0
   -3.4020    1.0640   -1.8260 C   0  0
   -2.0720    1.2950    0.2990 C   0  0
   -4.6970   -0.7440    0.1070 C   0  0
   -4.8790    1.1950   -1.4940 C   0  0
   -5.4360    0.3090   -0.5960 C   0  0
   -5.7560    2.1350   -2.0350 C   0  0
   -6.7400    0.6930   -0.5880 N   0  0
   -6.9080    1.7540   -1.4220 N   0  0
   -7.7330    0.1150    0.1370 C   0  0
   -8.9730   -0.1720   -0.4670 C   0  0
   -7.5240   -0.1990    1.4940 C   0  0
   -9.9980   -0.7700    0.2850 C   0  0
   -8.5530   -0.7970    2.2420 C   0  0
   -9.7890   -1.0820    1.6410 C   0  0
  -10.7620   -1.6490    2.3500 F   0  0
    5.5940   -1.6370   -2.2620 H   0  0
    5.7440   -1.4880   -0.5040 H   0  0
    8.6410    1.9750   -1.1060 H   0  0
    5.4810    0.4300    3.6470 H   0  0
    3.5570   -1.5860   -3.3730 H   0  0
    3.8220   -2.5160   -0.2480 H   0  0
    3.3560   -3.1700   -1.7750 H   0  0
    9.2110    3.7300    3.2500 H   0  0
    6.2480    1.6970    5.6330 H   0  0
    0.6410   -1.9490   -2.0390 H   0  0
    1.7580    1.3440   -2.1820 H   0  0
    0.8320    1.5350   -0.7250 H   0  0
    2.6520   -0.9730    1.0020 H   0  0
    1.2420    0.0740    1.1370 H   0  0
    2.7830    0.7380    0.6020 H   0  0
    1.7210   -2.7190    0.6500 H   0  0
    1.3520   -3.7500   -0.7070 H   0  0
    8.1060    3.3420    5.4360 H   0  0
   -0.3400   -0.7010    0.5060 H   0  0
    0.0220   -0.0780   -3.1430 H   0  0
   -1.6970   -1.0490   -2.1780 H   0  0
   -1.6860   -3.0220   -0.9000 H   0  0
   -0.8540   -3.1370    0.6350 H   0  0
   -0.1450    2.0350   -3.4200 H   0  0
   -2.3500   -1.5940    1.7070 H   0  0
   -3.3220   -2.7700    0.8710 H   0  0
   -3.3400    0.5640   -2.7930 H   0  0
   -3.0290    2.0780   -1.9690 H   0  0
   -2.9180    1.8570    0.6930 H   0  0
   -1.5700    0.7850    1.1210 H   0  0
   -1.3670    2.0080   -0.1310 H   0  0
   -5.2320   -1.4730    0.6990 H   0  0
   -5.6110    2.9430   -2.7400 H   0  0
   -9.1520    0.0610   -1.5060 H   0  0
   -6.5800    0.0120    1.9770 H   0  0
  -10.9470   -0.9880   -0.1820 H   0  0
   -8.3870   -1.0350    3.2830 H   0  0
  1  2  1  0
  1  3  1  0
  2  4  2  0
  2  5  1  0
  3  6  1  0
  4  7  1  0
  5  8  2  0
  6  9  2  0
  6 10  1  0
  7 11  1  0
  7 12  2  0
 10 13  1  0
 10 14  1  0
 10 15  1  0
 11 16  2  0
 12 17  1  0
 14 18  1  0
 14 19  1  0
 14 20  1  0
 15 21  1  0
 16 22  1  0
 18 23  1  0
 19 24  1  0
 25 23  1  0
 23 26  1  0
 24 27  1  0
 25 28  1  0
 26 29  1  0
 28 30  1  0
 28 31  1  0
 28 32  1  0
 30 33  2  0
 31 34  1  0
 33 35  1  0
 34 36  1  0
 35 37  1  0
 36 38  2  0
 37 39  1  0
 39 40  2  0
 39 41  1  0
 40 42  1  0
 41 43  2  0
 42 44  2  0
 44 45  1  0
  8 11  1  0
 17 22  2  0
 18 21  1  0
 24 25  1  0
 29 30  1  0
 34 35  2  0
 37 38  1  0
 43 44  1  0
  3 46  1  0
  3 47  1  0
  5 48  1  0
 12 49  1  0
 13 50  1  0
 15 51  1  0
 15 52  1  0
 16 53  1  0
 17 54  1  0
 18 55  1  0
 19 56  1  0
 19 57  1  0
 20 58  1  0
 20 59  1  0
 20 60  1  0
 21 61  1  0
 21 62  1  0
 22 63  1  0
 23 64  1  0
 24 65  1  0
 25 66  1  0
 26 67  1  0
 26 68  1  0
 27 69  1  0
 29 70  1  0
 29 71  1  0
 31 72  1  0
 31 73  1  0
 32 74  1  0
 32 75  1  0
 32 76  1  0
 33 77  1  0
 36 78  1  0
 40 79  1  0
 41 80  1  0
 42 81  1  0
 43 82  1  0
M  END
> <Name>
CHEMBL2023616

> <IC50 nM>
1.99

> <Molecule_ChEMBL_ID>
CHEMBL2023616

> <Smiles>
C[C@]12Cc3cnn(-c4ccc(F)cc4)c3C=C1CC[C@@H]1[C@@H]2[C@@H](O)C[C@@]2(C)[C@H]1CC[C@]2(O)C(=O)CSc1cnc2ccccc2n1

$$$$
CHEMBL2023619
  SciTegic08162514323D

 79 86  0  0  1  0            999 V2000
    6.2090   -0.8670    2.4000 S   0  0
    6.6150   -2.4880    2.1600 C   0  0
    5.8180   -0.3280    0.7810 C   0  0
    6.7090   -3.4040    1.1090 O   0  0
    6.9550   -3.0430    3.3960 N   0  0
    4.3870   -0.6700    0.4690 C   0  0
    7.1070   -4.4900    1.7770 C   0  0
    7.2640   -4.3200    3.1150 C   0  0
    4.0820   -1.7680    0.0660 O   0  0
    3.3400    0.4020    0.6760 C   0  0  2  0  0  0
    7.3850   -5.7770    1.2540 C   0  0
    7.6520   -5.1950    4.0880 N   0  0
    3.1410    0.5100    2.0760 O   0  0
    1.9940    0.1370   -0.0330 C   0  0  2  0  0  0
    3.7500    1.7850    0.1090 C   0  0
    7.8050   -6.7870    2.1820 C   0  0
    7.9280   -6.4670    3.5800 C   0  0
    1.3810    1.5530    0.0450 C   0  0  1  0  0  0
    1.0210   -0.9200    0.5410 C   0  0
    2.3240   -0.2340   -1.4920 C   0  0
    2.4980    2.4240   -0.5140 C   0  0
   -0.0120    1.4860   -0.5920 C   0  0  1  0  0  0
   -0.1990   -0.2970    1.2500 C   0  0  1  0  0  0
   -0.9770    0.7850    0.4060 C   0  0  2  0  0  0
   -0.5780    2.8440   -0.9900 C   0  0
   -1.0060   -1.3420    1.7480 O   0  0
   -2.3360    0.4340   -0.3030 C   0  0  2  0  0  0
   -1.8850    2.6290   -1.7520 C   0  0
   -2.8580    1.6720   -1.0820 C   0  0
   -3.3830   -0.1310    0.7300 C   0  0
   -2.0840   -0.6480   -1.3630 C   0  0
   -4.1780    1.9380   -1.2130 C   0  0
   -4.8420    0.0800    0.3590 C   0  0
   -5.1560    1.0760   -0.5410 C   0  0
   -5.9240   -0.6390    0.8670 C   0  0
   -6.5140    1.0000   -0.5860 N   0  0
   -6.9420    0.0000    0.2280 N   0  0
   -7.3260    1.7950   -1.3280 C   0  0
   -7.0160    2.0650   -2.6760 C   0  0
   -8.4870    2.3520   -0.7540 C   0  0
   -7.8600    2.8870   -3.4420 C   0  0
   -9.3280    3.1740   -1.5240 C   0  0
   -9.0160    3.4420   -2.8670 C   0  0
   -9.8130    4.2210   -3.5940 F   0  0
    5.9670    0.7500    0.7110 H   0  0
    6.4800   -0.8180    0.0660 H   0  0
    7.2830   -5.9900    0.1990 H   0  0
    3.9630    0.8540    2.4570 H   0  0
    4.1760    2.4280    0.8690 H   0  0
    4.5080    1.6860   -0.6540 H   0  0
    8.0270   -7.7830    1.8340 H   0  0
    8.2440   -7.2420    4.2640 H   0  0
    1.2440    1.8730    1.0700 H   0  0
    1.5600   -1.5880    1.2170 H   0  0
    0.6500   -1.5600   -0.2620 H   0  0
    3.1050    0.4020   -1.9060 H   0  0
    1.4430   -0.1370   -2.1250 H   0  0
    2.6680   -1.2680   -1.5570 H   0  0
    2.3850    3.4610   -0.2340 H   0  0
    2.5310    2.3770   -1.5920 H   0  0
    0.0590    0.8970   -1.5060 H   0  0
    0.1800    0.1990    2.1440 H   0  0
   -1.2480    1.5370    1.1480 H   0  0
   -0.7460    3.4590   -0.1060 H   0  0
    0.1270    3.3850   -1.6210 H   0  0
   -0.4860   -1.8050    2.4240 H   0  0
   -1.6580    2.2380   -2.7440 H   0  0
   -2.3560    3.6020   -1.9140 H   0  0
   -3.2540   -1.2050    0.8730 H   0  0
   -3.2340    0.3380    1.7050 H   0  0
   -3.0260   -0.9960   -1.7890 H   0  0
   -1.4530   -0.2640   -2.1640 H   0  0
   -1.5780   -1.5080   -0.9240 H   0  0
   -4.5160    2.7740   -1.8090 H   0  0
   -5.9860   -1.4630    1.5640 H   0  0
   -6.1310    1.6470   -3.1350 H   0  0
   -8.7440    2.1580    0.2790 H   0  0
   -7.6150    3.0900   -4.4750 H   0  0
  -10.2150    3.5980   -1.0760 H   0  0
  1  2  1  0
  1  3  1  0
  2  4  1  0
  2  5  2  0
  3  6  1  0
  4  7  1  0
  5  8  1  0
  6  9  2  0
  6 10  1  0
  7 11  1  0
  8 12  1  0
 10 13  1  0
 10 14  1  0
 10 15  1  0
 11 16  2  0
 12 17  2  0
 14 18  1  0
 14 19  1  0
 14 20  1  0
 15 21  1  0
 18 22  1  0
 19 23  1  0
 24 22  1  0
 22 25  1  0
 23 26  1  0
 24 27  1  0
 25 28  1  0
 27 29  1  0
 27 30  1  0
 27 31  1  0
 29 32  2  0
 30 33  1  0
 32 34  1  0
 33 35  1  0
 34 36  1  0
 35 37  2  0
 36 38  1  0
 38 39  2  0
 38 40  1  0
 39 41  1  0
 40 42  2  0
 41 43  2  0
 43 44  1  0
  7  8  2  0
 16 17  1  0
 18 21  1  0
 23 24  1  0
 28 29  1  0
 33 34  2  0
 36 37  1  0
 42 43  1  0
  3 45  1  0
  3 46  1  0
 11 47  1  0
 13 48  1  0
 15 49  1  0
 15 50  1  0
 16 51  1  0
 17 52  1  0
 18 53  1  0
 19 54  1  0
 19 55  1  0
 20 56  1  0
 20 57  1  0
 20 58  1  0
 21 59  1  0
 21 60  1  0
 22 61  1  0
 23 62  1  0
 24 63  1  0
 25 64  1  0
 25 65  1  0
 26 66  1  0
 28 67  1  0
 28 68  1  0
 30 69  1  0
 30 70  1  0
 31 71  1  0
 31 72  1  0
 31 73  1  0
 32 74  1  0
 35 75  1  0
 39 76  1  0
 40 77  1  0
 41 78  1  0
 42 79  1  0
M  END
> <Name>
CHEMBL2023619

> <IC50 nM>
0.32

> <Molecule_ChEMBL_ID>
CHEMBL2023619

> <Smiles>
C[C@]12Cc3cnn(-c4ccc(F)cc4)c3C=C1CC[C@@H]1[C@@H]2[C@@H](O)C[C@@]2(C)[C@H]1CC[C@]2(O)C(=O)CSc1nc2ncccc2o1

$$$$
CHEMBL2024030
  SciTegic08162514323D

 66 70  0  0  1  0            999 V2000
   -9.8280   -1.7150   -3.6370 Cl  0  0
   -8.7540   -1.1310   -2.4220 C   0  0
   -9.1100   -0.0860   -1.5350 C   0  0
   -7.4810   -1.7250   -2.3200 C   0  0
  -10.6430    0.6950   -1.5940 Cl  0  0
   -8.1840    0.3380   -0.5660 C   0  0
   -6.5470   -1.3070   -1.3540 C   0  0
   -6.9200   -0.2680   -0.4800 C   0  0
   -5.0250   -2.0290   -1.2480 S   0  0
   -4.0780   -0.8050   -0.4280 C   0  0
   -2.6130   -1.0860   -0.6310 C   0  0
   -2.2270   -2.1900   -0.9390 O   0  0
   -1.6390    0.0530   -0.4390 C   0  0  2  0  0  0
   -1.6540    0.8160   -1.6350 O   0  0
   -0.1970   -0.3830   -0.0800 C   0  0  2  0  0  0
   -1.9980    0.9800    0.7400 C   0  0
    0.4100    0.9410    0.4000 C   0  0  1  0  0  0
    0.6990   -0.9120   -1.2150 C   0  0
   -0.2930   -1.3870    1.0820 C   0  0
   -0.6760    1.4920    1.3240 C   0  0
    1.8140    0.7690    1.0020 C   0  0  1  0  0  0
    2.1720   -1.0840   -0.7730 C   0  0  1  0  0  0
    2.7580    0.1820   -0.0760 C   0  0  2  0  0  0
    2.3160    2.1500    1.4530 C   0  0
    2.2750   -2.2270    0.0570 O   0  0
    4.2360    0.0530    0.4240 C   0  0  2  0  0  0
    3.7500    2.0940    1.9820 C   0  0
    4.7050    1.3610    1.0630 C   0  0
    5.1410   -0.3440   -0.7710 C   0  0
    4.3690   -0.9960    1.5390 C   0  0
    5.9410    1.8630    0.8460 C   0  0
    6.6390   -0.2050   -0.4800 C   0  0
    6.9590    1.1740    0.0350 C   0  0
    8.0180    1.7050   -0.2050 O   0  0
   -7.2010   -2.5220   -2.9940 H   0  0
   -8.4300    1.1330    0.1230 H   0  0
   -6.2210    0.0700    0.2700 H   0  0
   -4.3260    0.1760   -0.8320 H   0  0
   -4.3130   -0.8160    0.6370 H   0  0
   -2.5430    1.1990   -1.7170 H   0  0
   -2.5270    0.4340    1.5080 H   0  0
   -2.6480    1.7950    0.4490 H   0  0
    0.4960    1.6170   -0.4430 H   0  0
    0.2990   -1.8480   -1.6090 H   0  0
    0.6860   -0.2130   -2.0530 H   0  0
   -1.0590   -1.1020    1.8030 H   0  0
    0.6560   -1.4550    1.6110 H   0  0
   -0.5410   -2.3830    0.7110 H   0  0
   -0.6460    2.5700    1.3730 H   0  0
   -0.5450    1.1190    2.3300 H   0  0
    1.7750    0.1020    1.8630 H   0  0
    2.7620   -1.3130   -1.6620 H   0  0
    2.7850    0.9340   -0.8690 H   0  0
    1.6660    2.5590    2.2270 H   0  0
    2.2730    2.8480    0.6150 H   0  0
    1.9920   -2.9880   -0.4730 H   0  0
    4.0980    3.1110    2.1700 H   0  0
    3.7540    1.5900    2.9510 H   0  0
    4.9360   -1.3670   -1.0820 H   0  0
    4.9020    0.2850   -1.6310 H   0  0
    5.2890   -0.8420    2.1040 H   0  0
    3.5200   -0.9430    2.2210 H   0  0
    4.3990   -2.0020    1.1190 H   0  0
    6.2090    2.8120    1.2890 H   0  0
    6.9510   -0.9450    0.2600 H   0  0
    7.2150   -0.4020   -1.3850 H   0  0
  1  2  1  0
  2  3  2  0
  2  4  1  0
  3  5  1  0
  3  6  1  0
  4  7  2  0
  6  8  2  0
  7  9  1  0
  9 10  1  0
 10 11  1  0
 11 12  2  0
 11 13  1  0
 13 14  1  0
 13 15  1  0
 13 16  1  0
 15 17  1  0
 15 18  1  0
 15 19  1  0
 16 20  1  0
 17 21  1  0
 18 22  1  0
 23 21  1  0
 21 24  1  0
 22 25  1  0
 23 26  1  0
 24 27  1  0
 26 28  1  0
 26 29  1  0
 26 30  1  0
 28 31  2  0
 29 32  1  0
 31 33  1  0
 33 34  2  0
  7  8  1  0
 17 20  1  0
 22 23  1  0
 27 28  1  0
 32 33  1  0
  4 35  1  0
  6 36  1  0
  8 37  1  0
 10 38  1  0
 10 39  1  0
 14 40  1  0
 16 41  1  0
 16 42  1  0
 17 43  1  0
 18 44  1  0
 18 45  1  0
 19 46  1  0
 19 47  1  0
 19 48  1  0
 20 49  1  0
 20 50  1  0
 21 51  1  0
 22 52  1  0
 23 53  1  0
 24 54  1  0
 24 55  1  0
 25 56  1  0
 27 57  1  0
 27 58  1  0
 29 59  1  0
 29 60  1  0
 30 61  1  0
 30 62  1  0
 30 63  1  0
 31 64  1  0
 32 65  1  0
 32 66  1  0
M  END
> <Name>
CHEMBL2024030

> <IC50 nM>
27.2

> <Molecule_ChEMBL_ID>
CHEMBL2024030

> <Smiles>
C[C@]12CCC(=O)C=C1CC[C@@H]1[C@@H]2[C@@H](O)C[C@@]2(C)[C@H]1CC[C@]2(O)C(=O)CSc1ccc(Cl)c(Cl)c1

$$$$
CHEMBL2022656
  SciTegic08162514323D

 79 86  0  0  1  0            999 V2000
    6.5040   -0.2030   -0.1560 S   0  0
    6.6980   -1.7710   -0.7500 C   0  0
    5.8600   -0.4770    1.4470 C   0  0
    6.4870   -3.0880   -0.3280 O   0  0
    7.2210   -1.6910   -2.0430 N   0  0
    4.4100   -0.8730    1.3440 C   0  0
    6.9030   -3.7500   -1.4120 C   0  0
    7.3380   -2.9710   -2.4340 C   0  0
    4.0940   -2.0160    1.1040 O   0  0
    3.3650    0.1970    1.5510 C   0  0  2  0  0  0
    6.9360   -5.1520   -1.6090 C   0  0
    7.8230   -3.3030   -3.6660 N   0  0
    3.1640    0.3050    2.9510 O   0  0
    2.0180   -0.0680    0.8400 C   0  0  2  0  0  0
    3.7760    1.5800    0.9840 C   0  0
    7.4280   -5.6250   -2.8730 C   0  0
    7.8600   -4.6840   -3.8710 C   0  0
    1.4040    1.3480    0.9200 C   0  0  1  0  0  0
    1.0470   -1.1250    1.4160 C   0  0
    2.3500   -0.4390   -0.6170 C   0  0
    2.5240    2.2210    0.3610 C   0  0
    0.0140    1.2830    0.2830 C   0  0  1  0  0  0
   -0.1760   -0.5020    2.1230 C   0  0  1  0  0  0
   -0.9510    0.5800    1.2790 C   0  0  2  0  0  0
   -0.5530    2.6390   -0.1170 C   0  0
   -0.9800   -1.5450    2.6230 O   0  0
   -2.3100    0.2290    0.5720 C   0  0  2  0  0  0
   -1.8610    2.4260   -0.8790 C   0  0
   -2.8320    1.4670   -0.2070 C   0  0
   -3.3570   -0.3360    1.6060 C   0  0
   -2.0600   -0.8540   -0.4880 C   0  0
   -4.1520    1.7320   -0.3380 C   0  0
   -4.8180   -0.1250    1.2340 C   0  0
   -5.1330    0.8710    0.3340 C   0  0
   -5.9000   -0.8420    1.7400 C   0  0
   -6.4880    0.7970    0.2870 N   0  0
   -6.9160   -0.2050    1.1020 N   0  0
   -7.3030    1.5900   -0.4530 C   0  0
   -8.4630    2.1470    0.1210 C   0  0
   -6.9900    1.8610   -1.8010 C   0  0
   -9.3050    2.9670   -0.6480 C   0  0
   -7.8340    2.6840   -2.5660 C   0  0
   -8.9900    3.2360   -1.9920 C   0  0
    6.4260   -1.2700    1.9360 H   0  0
    5.9530    0.4340    2.0370 H   0  0
    6.6060   -5.8380   -0.8440 H   0  0
    3.9960    0.6250    3.3340 H   0  0
    4.1990    2.2230    1.7420 H   0  0
    4.5330    1.4810    0.2190 H   0  0
    7.4730   -6.6860   -3.0720 H   0  0
    8.2270   -5.0590   -4.8150 H   0  0
    1.2680    1.6680    1.9430 H   0  0
    1.5840   -1.7910    2.0920 H   0  0
    0.6760   -1.7660    0.6110 H   0  0
    3.0630    0.2540   -1.0620 H   0  0
    1.4490   -0.4320   -1.2320 H   0  0
    2.7810   -1.4390   -0.6720 H   0  0
    2.4080    3.2580    0.6410 H   0  0
    2.5550    2.1720   -0.7190 H   0  0
    0.0820    0.6910   -0.6310 H   0  0
    0.2050   -0.0060    3.0180 H   0  0
   -1.2240    1.3320    2.0220 H   0  0
   -0.7210    3.2540    0.7680 H   0  0
    0.1520    3.1820   -0.7480 H   0  0
   -0.4530   -2.0230    3.2830 H   0  0
   -1.6330    2.0330   -1.8710 H   0  0
   -2.3320    3.3970   -1.0390 H   0  0
   -3.2300   -1.4080    1.7480 H   0  0
   -3.2110    0.1330    2.5800 H   0  0
   -3.0020   -1.2090   -0.9060 H   0  0
   -1.4370   -0.4650   -1.2950 H   0  0
   -1.5450   -1.7090   -0.0510 H   0  0
   -4.4900    2.5680   -0.9340 H   0  0
   -5.9630   -1.6680    2.4400 H   0  0
   -8.7210    1.9510    1.1520 H   0  0
   -6.1030    1.4450   -2.2600 H   0  0
  -10.1930    3.3930   -0.2070 H   0  0
   -7.5920    2.8910   -3.6000 H   0  0
   -9.6370    3.8690   -2.5820 H   0  0
  1  2  1  0
  1  3  1  0
  2  4  1  0
  2  5  2  0
  3  6  1  0
  4  7  1  0
  5  8  1  0
  6  9  2  0
  6 10  1  0
  7 11  1  0
  8 12  1  0
 10 13  1  0
 10 14  1  0
 10 15  1  0
 11 16  2  0
 12 17  2  0
 14 18  1  0
 14 19  1  0
 14 20  1  0
 15 21  1  0
 18 22  1  0
 19 23  1  0
 24 22  1  0
 22 25  1  0
 23 26  1  0
 24 27  1  0
 25 28  1  0
 27 29  1  0
 27 30  1  0
 27 31  1  0
 29 32  2  0
 30 33  1  0
 32 34  1  0
 33 35  1  0
 34 36  1  0
 35 37  2  0
 36 38  1  0
 38 39  2  0
 38 40  1  0
 39 41  1  0
 40 42  2  0
 41 43  2  0
  7  8  2  0
 16 17  1  0
 18 21  1  0
 23 24  1  0
 28 29  1  0
 33 34  2  0
 36 37  1  0
 42 43  1  0
  3 44  1  0
  3 45  1  0
 11 46  1  0
 13 47  1  0
 15 48  1  0
 15 49  1  0
 16 50  1  0
 17 51  1  0
 18 52  1  0
 19 53  1  0
 19 54  1  0
 20 55  1  0
 20 56  1  0
 20 57  1  0
 21 58  1  0
 21 59  1  0
 22 60  1  0
 23 61  1  0
 24 62  1  0
 25 63  1  0
 25 64  1  0
 26 65  1  0
 28 66  1  0
 28 67  1  0
 30 68  1  0
 30 69  1  0
 31 70  1  0
 31 71  1  0
 31 72  1  0
 32 73  1  0
 35 74  1  0
 39 75  1  0
 40 76  1  0
 41 77  1  0
 42 78  1  0
 43 79  1  0
M  END
> <Name>
CHEMBL2022656

> <IC50 nM>
0.89

> <Molecule_ChEMBL_ID>
CHEMBL2022656

> <Smiles>
C[C@]12Cc3cnn(-c4ccccc4)c3C=C1CC[C@@H]1[C@@H]2[C@@H](O)C[C@@]2(C)[C@H]1CC[C@]2(O)C(=O)CSc1nc2ncccc2o1

$$$$
CHEMBL2022864
  SciTegic08162514323D

 82 89  0  0  1  0            999 V2000
    3.3110   -2.5840   -0.1130 O   0  0
    3.6150   -1.4860    0.2910 C   0  0
    2.5680   -0.4160    0.4980 C   0  0  2  0  0  0
    5.0470   -1.1470    0.6030 C   0  0
    2.3690   -0.3070    1.8980 O   0  0
    1.2210   -0.6800   -0.2130 C   0  0  2  0  0  0
    2.9790    0.9670   -0.0680 C   0  0
    5.3240   -1.4630    1.9610 O   0  0
    0.6090    0.7360   -0.1330 C   0  0  1  0  0  0
    0.2500   -1.7380    0.3630 C   0  0
    1.5530   -1.0530   -1.6700 C   0  0
    1.7270    1.6070   -0.6910 C   0  0
    6.5670   -1.2500    2.4160 C   0  0
   -0.7830    0.6700   -0.7700 C   0  0  1  0  0  0
   -0.9730   -1.1150    1.0720 C   0  0  1  0  0  0
    7.5180   -0.7010    1.5760 N   0  0
    6.8990   -1.5900    3.7520 C   0  0
   -1.7480   -0.0330    0.2270 C   0  0  2  0  0  0
   -1.3500    2.0250   -1.1680 C   0  0
   -1.7770   -2.1580    1.5700 O   0  0
    8.8030   -0.4800    2.0450 C   0  0
    8.1760   -1.3750    4.2320 N   0  0
   -3.1070   -0.3850   -0.4810 C   0  0  2  0  0  0
   -2.6580    1.8130   -1.9320 C   0  0
    9.1390   -0.8240    3.4000 C   0  0
    9.7910    0.0820    1.2010 C   0  0
   -3.6290    0.8540   -1.2600 C   0  0
   -4.1540   -0.9490    0.5530 C   0  0
   -2.8560   -1.4670   -1.5410 C   0  0
   10.4550   -0.5980    3.8710 C   0  0
   11.1020    0.3010    1.6860 C   0  0
   -4.9490    1.1190   -1.3910 C   0  0
   -5.6130   -0.7380    0.1820 C   0  0
   11.4320   -0.0370    3.0180 C   0  0
   -5.9280    0.2580   -0.7190 C   0  0
   -6.6950   -1.4550    0.6890 C   0  0
   -7.2850    0.1840   -0.7640 N   0  0
   -7.7130   -0.8180    0.0510 N   0  0
   -8.1000    0.9770   -1.5060 C   0  0
   -9.2660    1.5230   -0.9360 C   0  0
   -7.7790    1.2580   -2.8500 C   0  0
  -10.1080    2.3460   -1.7050 C   0  0
   -8.6230    2.0800   -3.6150 C   0  0
   -9.7870    2.6230   -3.0450 C   0  0
    5.2130   -0.0780    0.4630 H   0  0
    5.7130   -1.7340   -0.0270 H   0  0
    3.1860    0.0490    2.2770 H   0  0
    3.4040    1.6090    0.6890 H   0  0
    3.7360    0.8670   -0.8320 H   0  0
    0.4730    1.0550    0.8910 H   0  0
    0.7890   -2.4040    1.0390 H   0  0
   -0.1210   -2.3790   -0.4400 H   0  0
    2.3140   -0.3980   -2.0940 H   0  0
    0.6660   -0.9800   -2.2990 H   0  0
    1.9220   -2.0760   -1.7320 H   0  0
    1.6110    2.6450   -0.4120 H   0  0
    1.7580    1.5590   -1.7720 H   0  0
   -0.7130    0.0780   -1.6840 H   0  0
   -0.5920   -0.6190    1.9650 H   0  0
    6.1490   -2.0200    4.4000 H   0  0
   -2.0220    0.7210    0.9690 H   0  0
   -1.5180    2.6410   -0.2850 H   0  0
   -0.6450    2.5680   -1.8010 H   0  0
   -1.2270   -2.6800    2.1760 H   0  0
   -2.4300    1.4200   -2.9240 H   0  0
   -3.1290    2.7830   -2.0920 H   0  0
    9.5590    0.3480    0.1800 H   0  0
   -4.0270   -2.0220    0.6950 H   0  0
   -4.0060   -0.4800    1.5270 H   0  0
   -3.7990   -1.8320   -1.9490 H   0  0
   -2.2460   -1.0740   -2.3540 H   0  0
   -2.3280   -2.3140   -1.1070 H   0  0
   10.7290   -0.8480    4.8870 H   0  0
   11.8500    0.7290    1.0370 H   0  0
   -5.2870    1.9550   -1.9860 H   0  0
   12.4340    0.1350    3.3830 H   0  0
   -6.7580   -2.2790    1.3870 H   0  0
   -9.5290    1.3200    0.0940 H   0  0
   -6.8890    0.8500   -3.3070 H   0  0
  -11.0000    2.7640   -1.2660 H   0  0
   -8.3770    2.2950   -4.6470 H   0  0
  -10.4340    3.2560   -3.6350 H   0  0
  1  2  2  0
  2  3  1  0
  2  4  1  0
  3  5  1  0
  3  6  1  0
  3  7  1  0
  4  8  1  0
  6  9  1  0
  6 10  1  0
  6 11  1  0
  7 12  1  0
  8 13  1  0
  9 14  1  0
 10 15  1  0
 13 16  2  0
 13 17  1  0
 18 14  1  0
 14 19  1  0
 15 20  1  0
 16 21  1  0
 17 22  2  0
 18 23  1  0
 19 24  1  0
 21 25  1  0
 21 26  2  0
 23 27  1  0
 23 28  1  0
 23 29  1  0
 25 30  2  0
 26 31  1  0
 27 32  2  0
 28 33  1  0
 30 34  1  0
 32 35  1  0
 33 36  1  0
 35 37  1  0
 36 38  2  0
 37 39  1  0
 39 40  2  0
 39 41  1  0
 40 42  1  0
 41 43  2  0
 42 44  2  0
  9 12  1  0
 15 18  1  0
 22 25  1  0
 24 27  1  0
 31 34  2  0
 33 35  2  0
 37 38  1  0
 43 44  1  0
  4 45  1  0
  4 46  1  0
  5 47  1  0
  7 48  1  0
  7 49  1  0
  9 50  1  0
 10 51  1  0
 10 52  1  0
 11 53  1  0
 11 54  1  0
 11 55  1  0
 12 56  1  0
 12 57  1  0
 14 58  1  0
 15 59  1  0
 17 60  1  0
 18 61  1  0
 19 62  1  0
 19 63  1  0
 20 64  1  0
 24 65  1  0
 24 66  1  0
 26 67  1  0
 28 68  1  0
 28 69  1  0
 29 70  1  0
 29 71  1  0
 29 72  1  0
 30 73  1  0
 31 74  1  0
 32 75  1  0
 34 76  1  0
 36 77  1  0
 40 78  1  0
 41 79  1  0
 42 80  1  0
 43 81  1  0
 44 82  1  0
M  END
> <Name>
CHEMBL2022864

> <IC50 nM>
3.7

> <Molecule_ChEMBL_ID>
CHEMBL2022864

> <Smiles>
C[C@]12Cc3cnn(-c4ccccc4)c3C=C1CC[C@@H]1[C@@H]2[C@@H](O)C[C@@]2(C)[C@H]1CC[C@]2(O)C(=O)COc1cnc2ccccc2n1

$$$$
CHEMBL65381
  SciTegic08162514323D

 46 49  0  0  1  0            999 V2000
    2.2500    1.3850   -0.3610 O   0  0
    2.8670    0.2300   -0.0410 C   0  0
    0.9410    1.7010    0.1370 C   0  0  2  0  0  0
    2.1230   -0.9100    0.3810 C   0  0
    4.2750    0.1780   -0.1410 C   0  0
    0.0550    0.5020    0.2790 C   0  0
    0.3770    2.7480   -0.7660 C   0  0
    2.8420   -2.0860    0.7720 C   0  0
    0.6410   -0.7970    0.3790 C   0  0
    4.9690   -0.9980    0.2130 C   0  0
   -1.3610    0.6430    0.3400 C   0  0
   -0.0900    3.9610   -0.2280 C   0  0
    0.3140    2.5230   -2.1520 C   0  0
    2.2380   -3.1820    1.2540 O   0  0
    4.2540   -2.1230    0.6760 C   0  0
   -0.2190   -1.9320    0.4670 C   0  0
   -2.2030   -0.4880    0.4590 C   0  0
   -0.6210    4.9470   -1.0800 C   0  0
   -0.2170    3.5100   -3.0020 C   0  0
    2.9650   -4.4020    1.2460 C   0  0
   -1.6210   -1.7760    0.5160 C   0  0
   -3.5350   -0.3440    0.5160 N   0  0
   -0.6860    4.7210   -2.4650 C   0  0
   -4.3970   -1.5270    0.6540 C   0  0
   -5.8710   -1.1250    0.7110 C   0  0
    1.0680    2.1390    1.1290 H   0  0
    4.8260    1.0390   -0.4880 H   0  0
    6.0450   -1.0390    0.1310 H   0  0
   -1.8050    1.6270    0.2990 H   0  0
   -0.0450    4.1430    0.8340 H   0  0
    0.6720    1.5940   -2.5700 H   0  0
    4.7910   -3.0160    0.9590 H   0  0
    0.1460   -2.9430    0.4960 H   0  0
   -0.9810    5.8790   -0.6680 H   0  0
   -0.2660    3.3360   -4.0660 H   0  0
    2.3920   -5.3130    1.4260 H   0  0
    3.7420   -4.3400    2.0080 H   0  0
    3.4530   -4.5020    0.2770 H   0  0
   -2.2400   -2.6580    0.5940 H   0  0
   -3.9420    0.5680    0.4650 H   0  0
   -1.0940    5.4790   -3.1170 H   0  0
   -4.2130   -2.2030   -0.1820 H   0  0
   -4.1120   -2.0760    1.5510 H   0  0
   -6.5060   -2.0060    0.8180 H   0  0
   -6.0550   -0.4490    1.5450 H   0  0
   -6.1660   -0.6130   -0.2050 H   0  0
  1  2  1  0
  1  3  1  0
  2  4  2  0
  2  5  1  0
  3  6  1  0
  3  7  1  0
  4  8  1  0
  4  9  1  0
  5 10  2  0
  6 11  2  0
  7 12  2  0
  7 13  1  0
  8 14  1  0
  8 15  2  0
  9 16  2  0
 11 17  1  0
 12 18  1  0
 13 19  2  0
 14 20  1  0
 16 21  1  0
 17 22  1  0
 18 23  2  0
 22 24  1  0
 24 25  1  0
  6  9  1  0
 10 15  1  0
 17 21  2  0
 19 23  1  0
  3 26  1  0
  5 27  1  0
 10 28  1  0
 11 29  1  0
 12 30  1  0
 13 31  1  0
 15 32  1  0
 16 33  1  0
 18 34  1  0
 19 35  1  0
 20 36  1  0
 20 37  1  0
 20 38  1  0
 21 39  1  0
 22 40  1  0
 23 41  1  0
 24 42  1  0
 24 43  1  0
 25 44  1  0
 25 45  1  0
 25 46  1  0
M  END
> <Name>
CHEMBL65381

> <IC50 nM>
564

> <Molecule_ChEMBL_ID>
CHEMBL65381

> <Smiles>
CCNc1ccc2c(c1)C(c1ccccc1)Oc1cccc(OC)c1-2

$$$$
CHEMBL197312
  SciTegic08162514323D

 58 62  0  0  1  0            999 V2000
   -4.8670    6.5410   -2.8520 F   0  0
   -4.4860    5.4260   -2.2330 C   0  0
   -3.4320    4.6560   -2.7540 C   0  0
   -5.1390    5.0180   -1.0570 C   0  0
   -3.0270    3.4810   -2.1000 C   0  0
   -4.7360    3.8400   -0.4000 C   0  0
   -3.6800    3.0680   -0.9220 C   0  0
   -3.2910    1.9320   -0.2890 N   0  0
   -4.1390    0.9750    0.1760 N   0  0
   -2.0080    1.5700   -0.0250 C   0  0
   -3.4960   -0.0640    0.7770 C   0  0
   -2.1780    0.3610    0.6330 C   0  0
   -0.6990    2.1950   -0.2970 C   0  0
   -0.9300   -0.3550    1.1370 C   0  0
    0.4140    1.4590   -0.0800 C   0  0
    0.3320   -0.0370    0.2600 C   0  0  1  0  0  0
    1.7870    2.0820   -0.1540 C   0  0
    1.6490   -0.4900    0.9920 C   0  0
    0.1660   -0.7730   -1.0840 C   0  0
    2.5630    1.8910    1.1640 C   0  0
    1.4730   -1.6930    1.7230 O   0  0
    2.6740   -0.8610    0.0720 O   0  0
    2.1970    0.6000    1.9300 C   0  0
    1.6950   -2.7970    0.8810 C   0  0  1  0  0  0
    2.8300   -2.2680    0.0100 C   0  0  1  0  0  0
    2.0450   -4.0160    1.7250 C   0  0
    2.7520   -2.7170   -1.4430 C   0  0
    0.7990   -4.4940    2.4710 C   0  0
    3.4550   -4.0660   -1.5980 C   0  0
   -2.9280    4.9690   -3.6560 H   0  0
   -5.9490    5.6060   -0.6520 H   0  0
   -2.2130    2.9020   -2.5160 H   0  0
   -5.2500    3.5430    0.5040 H   0  0
   -3.9340   -0.9470    1.2260 H   0  0
   -0.6390    3.2150   -0.6520 H   0  0
   -1.1190   -1.4300    1.1720 H   0  0
   -0.7620   -0.0330    2.1640 H   0  0
    2.3320    1.6150   -0.9750 H   0  0
    1.7270    3.1430   -0.4000 H   0  0
    1.0760   -0.7380   -1.6820 H   0  0
   -0.6370   -0.3240   -1.6720 H   0  0
   -0.0860   -1.8200   -0.9220 H   0  0
    3.6290    1.8980    0.9430 H   0  0
    2.3910    2.7460    1.8180 H   0  0
    3.0700    0.2480    2.4860 H   0  0
    1.4430    0.8360    2.6820 H   0  0
    0.7970   -2.9690    0.3050 H   0  0
    3.7950   -2.5020    0.4350 H   0  0
    2.4490   -4.8130    1.1000 H   0  0
    2.8480   -3.7830    2.4240 H   0  0
    3.1990   -1.9730   -2.1020 H   0  0
    1.7150   -2.7850   -1.7720 H   0  0
    1.0000   -5.3850    3.0660 H   0  0
    0.0000   -4.7360    1.7710 H   0  0
    0.4320   -3.7190    3.1430 H   0  0
    3.4430   -4.3910   -2.6370 H   0  0
    4.4880   -4.0020   -1.2560 H   0  0
    2.9550   -4.8320   -1.0040 H   0  0
  1  2  1  0
  2  3  2  0
  2  4  1  0
  3  5  1  0
  4  6  2  0
  5  7  2  0
  7  8  1  0
  8  9  1  0
  8 10  1  0
  9 11  2  0
 10 12  2  0
 10 13  1  0
 12 14  1  0
 13 15  2  0
 14 16  1  0
 15 17  1  0
 16 18  1  0
 16 19  1  0
 17 20  1  0
 18 21  1  0
 18 22  1  0
 18 23  1  0
 21 24  1  0
 22 25  1  0
 24 26  1  0
 25 27  1  0
 26 28  1  0
 27 29  1  0
  6  7  1  0
 11 12  1  0
 15 16  1  0
 20 23  1  0
 24 25  1  0
  3 30  1  0
  4 31  1  0
  5 32  1  0
  6 33  1  0
 11 34  1  0
 13 35  1  0
 14 36  1  0
 14 37  1  0
 17 38  1  0
 17 39  1  0
 19 40  1  0
 19 41  1  0
 19 42  1  0
 20 43  1  0
 20 44  1  0
 23 45  1  0
 23 46  1  0
 24 47  1  0
 25 48  1  0
 26 49  1  0
 26 50  1  0
 27 51  1  0
 27 52  1  0
 28 53  1  0
 28 54  1  0
 28 55  1  0
 29 56  1  0
 29 57  1  0
 29 58  1  0
M  END
> <Name>
CHEMBL197312

> <IC50 nM>
5.5

> <Molecule_ChEMBL_ID>
CHEMBL197312

> <Smiles>
CC[C@H]1OC2(CCCC3=Cc4c(cnn4-c4ccc(F)cc4)C[C@@]32C)O[C@@H]1CC

$$$$
CHEMBL304102
  SciTegic08162514323D

 54 56  0  0  0  0            999 V2000
   -0.0230    5.3320    0.7770 S   0  0
   -1.0680    6.3420    0.7340 O   0  0
    0.2170    4.8170    2.1150 O   0  0
   -0.5100    4.0920   -0.1430 N   0  0
    1.4920    6.0410    0.1500 C   0  0
   -0.0060    2.8340    0.0800 C   0  0
   -0.6910    1.6780   -0.3650 C   0  0
    1.2150    2.7030    0.7680 C   0  0
   -0.1410    0.3990   -0.1150 C   0  0
   -1.9900    1.8090   -1.0960 C   0  0
    1.7560    1.4320    1.0140 C   0  0
   -0.7770   -0.7440   -0.5310 N   0  0
    1.0820    0.2830    0.5740 C   0  0
   -1.7750    2.0060   -2.5960 C   0  0
   -0.5860   -1.2640   -1.8930 C   0  0
   -1.6640   -1.4710    0.3910 C   0  0
    0.2030   -2.5230   -1.8930 C   0  0
   -0.9610   -1.8480    1.6440 C   0  0
   -0.4530   -3.7660   -1.8930 C   0  0
    1.6090   -2.4730   -1.8930 C   0  0
   -0.1970   -3.0270    1.6930 C   0  0
   -1.0570   -1.0250    2.7810 C   0  0
    0.2930   -4.9570   -1.8930 C   0  0
    2.3560   -3.6640   -1.8930 C   0  0
    0.4690   -3.3850    2.8810 C   0  0
   -0.3930   -1.3830    3.9670 C   0  0
    1.6970   -4.9060   -1.8930 C   0  0
    0.3710   -2.5620    4.0160 C   0  0
   -1.1740    4.2400   -0.8750 H   0  0
    1.8610    6.8930    0.7230 H   0  0
    1.3400    6.3730   -0.8770 H   0  0
    2.2740    5.2810    0.1430 H   0  0
    1.7540    3.5740    1.1150 H   0  0
   -2.6030    0.9280   -0.9080 H   0  0
   -2.5620    2.6370   -0.6760 H   0  0
    2.6930    1.3380    1.5410 H   0  0
    1.5180   -0.6850    0.7730 H   0  0
   -1.0820    2.8280   -2.7810 H   0  0
   -1.3790    1.0980   -3.0510 H   0  0
   -2.7150    2.2460   -3.0940 H   0  0
   -0.0720   -0.5140   -2.4940 H   0  0
   -1.5590   -1.4450   -2.3480 H   0  0
   -2.0350   -2.3670   -0.1040 H   0  0
   -2.5210   -0.8420    0.6290 H   0  0
   -1.5330   -3.8120   -1.8930 H   0  0
    2.1210   -1.5210   -1.8930 H   0  0
   -0.1170   -3.6640    0.8240 H   0  0
   -1.6430   -0.1170    2.7480 H   0  0
   -0.2130   -5.9120   -1.8930 H   0  0
    3.4360   -3.6250   -1.8930 H   0  0
    1.0550   -4.2910    2.9180 H   0  0
   -0.4670   -0.7520    4.8400 H   0  0
    2.2720   -5.8220   -1.8930 H   0  0
    0.8830   -2.8380    4.9280 H   0  0
  1  2  2  0
  1  3  2  0
  1  4  1  0
  1  5  1  0
  4  6  1  0
  6  7  2  0
  6  8  1  0
  7  9  1  0
  7 10  1  0
  8 11  2  0
  9 12  1  0
  9 13  2  0
 10 14  1  0
 12 15  1  0
 12 16  1  0
 15 17  1  0
 16 18  1  0
 17 19  2  0
 17 20  1  0
 18 21  2  0
 18 22  1  0
 19 23  1  0
 20 24  2  0
 21 25  1  0
 22 26  2  0
 23 27  2  0
 25 28  2  0
 11 13  1  0
 24 27  1  0
 26 28  1  0
  4 29  1  0
  5 30  1  0
  5 31  1  0
  5 32  1  0
  8 33  1  0
 10 34  1  0
 10 35  1  0
 11 36  1  0
 13 37  1  0
 14 38  1  0
 14 39  1  0
 14 40  1  0
 15 41  1  0
 15 42  1  0
 16 43  1  0
 16 44  1  0
 19 45  1  0
 20 46  1  0
 21 47  1  0
 22 48  1  0
 23 49  1  0
 24 50  1  0
 25 51  1  0
 26 52  1  0
 27 53  1  0
 28 54  1  0
M  END
> <Name>
CHEMBL304102

> <IC50 nM>
12

> <Molecule_ChEMBL_ID>
CHEMBL304102

> <Smiles>
CCc1c(NS(C)(=O)=O)cccc1N(Cc1ccccc1)Cc1ccccc1

$$$$
CHEMBL63422
  SciTegic08162514323D

 38 41  0  0  1  0            999 V2000
    1.1620    1.1270   -0.2270 O   0  0
    1.7790   -0.0260    0.0960 C   0  0
   -0.1420    1.4470    0.2810 C   0  0  2  0  0  0
    1.0350   -1.1660    0.5200 C   0  0
    3.1880   -0.0800   -0.0080 C   0  0
   -1.0310    0.2500    0.4180 C   0  0
   -0.7050    2.5060   -0.6090 C   0  0
    1.7560   -2.3420    0.9140 C   0  0
   -0.4470   -1.0530    0.5200 C   0  0
    3.8810   -1.2560    0.3460 C   0  0
   -2.4470    0.3890    0.4750 C   0  0
   -1.0620    3.7580   -0.0760 C   0  0
   -0.8790    2.2520   -1.9820 C   0  0
    1.1510   -3.4340    1.3990 O   0  0
    3.1660   -2.3770    0.8150 C   0  0
   -1.3050   -2.1880    0.6070 C   0  0
   -3.2790   -0.7440    0.5940 C   0  0
   -1.5940    4.7540   -0.9140 C   0  0
   -1.4100    3.2480   -2.8180 C   0  0
    1.8420   -4.6700    1.3160 C   0  0
   -2.7070   -2.0310    0.6540 C   0  0
   -1.7680    4.5000   -2.2850 C   0  0
   -0.0100    1.8750    1.2750 H   0  0
    3.7380    0.7810   -0.3570 H   0  0
    4.9570   -1.2950    0.2620 H   0  0
   -2.9080    1.3630    0.4300 H   0  0
   -0.9320    3.9590    0.9770 H   0  0
   -0.6070    1.2930   -2.3980 H   0  0
    3.7050   -3.2700    1.1020 H   0  0
   -0.9390   -3.1990    0.6390 H   0  0
   -4.3520   -0.6270    0.6390 H   0  0
   -1.8670    5.7130   -0.5040 H   0  0
   -1.5430    3.0550   -3.8730 H   0  0
    1.1470   -5.4690    1.5740 H   0  0
    2.3070   -4.7370    0.3340 H   0  0
    2.6370   -4.6680    2.0630 H   0  0
   -3.3440   -2.9010    0.7340 H   0  0
   -2.1740    5.2660   -2.9300 H   0  0
  1  2  1  0
  1  3  1  0
  2  4  2  0
  2  5  1  0
  3  6  1  0
  3  7  1  0
  4  8  1  0
  4  9  1  0
  5 10  2  0
  6 11  2  0
  7 12  2  0
  7 13  1  0
  8 14  1  0
  8 15  2  0
  9 16  2  0
 11 17  1  0
 12 18  1  0
 13 19  2  0
 14 20  1  0
 16 21  1  0
 18 22  2  0
  6  9  1  0
 10 15  1  0
 17 21  2  0
 19 22  1  0
  3 23  1  0
  5 24  1  0
 10 25  1  0
 11 26  1  0
 12 27  1  0
 13 28  1  0
 15 29  1  0
 16 30  1  0
 17 31  1  0
 18 32  1  0
 19 33  1  0
 20 34  1  0
 20 35  1  0
 20 36  1  0
 21 37  1  0
 22 38  1  0
M  END
> <Name>
CHEMBL63422

> <IC50 nM>
10000

> <Molecule_ChEMBL_ID>
CHEMBL63422

> <Smiles>
COc1cccc2c1-c1ccccc1C(c1ccccc1)O2

$$$$
CHEMBL65354
  SciTegic08162514323D

 46 49  0  0  1  0            999 V2000
   -4.4470   -1.6310    0.6800 S   0  0
   -4.2440   -2.4650   -0.4900 O   0  0
   -4.0800   -2.2870    1.9220 O   0  0
   -3.4960   -0.3280    0.5200 N   0  0
   -6.1700   -1.1580    0.7640 C   0  0
   -2.1640   -0.4730    0.4630 C   0  0
   -1.3240    0.6580    0.3440 C   0  0
   -1.5820   -1.7600    0.5180 C   0  0
    0.0920    0.5190    0.2830 C   0  0
   -0.1800   -1.9140    0.4710 C   0  0
    0.6780   -0.7810    0.3830 C   0  0
    0.9810    1.7190    0.1410 C   0  0  1  0  0  0
    2.1600   -0.8950    0.3830 C   0  0
    2.2870    1.4000   -0.3590 O   0  0
    0.4160    2.7660   -0.7620 C   0  0
    2.9040    0.2480   -0.0370 C   0  0
    2.8810   -2.0700    0.7750 C   0  0
    0.3520    2.5390   -2.1480 C   0  0
   -0.0530    3.9790   -0.2270 C   0  0
    4.3130    0.1930   -0.1390 C   0  0
    2.2760   -3.1640    1.2560 O   0  0
    4.2910   -2.1060    0.6780 C   0  0
   -0.1800    3.5250   -2.9980 C   0  0
   -0.5840    4.9630   -1.0760 C   0  0
    5.0060   -0.9820    0.2150 C   0  0
    2.9770   -4.3990    1.1860 C   0  0
   -0.2400    3.3130   -4.3110 F   0  0
   -0.6460    4.7380   -2.4630 C   0  0
   -3.9020    0.5840    0.4610 H   0  0
   -6.8590   -1.9960    0.8730 H   0  0
   -6.4430   -0.6170   -0.1430 H   0  0
   -6.3220   -0.4880    1.6090 H   0  0
   -1.7670    1.6450    0.3010 H   0  0
   -2.2030   -2.6430    0.5980 H   0  0
    0.1860   -2.9260    0.5000 H   0  0
    1.1060    2.1560    1.1310 H   0  0
    0.7110    1.6070   -2.5620 H   0  0
   -0.0060    4.1580    0.8380 H   0  0
    4.8630    1.0550   -0.4840 H   0  0
    4.8280   -3.0000    0.9610 H   0  0
   -0.9410    5.8950   -0.6640 H   0  0
    6.0820   -1.0220    0.1350 H   0  0
    2.2830   -5.1990    1.4430 H   0  0
    3.4490   -4.4670    0.2070 H   0  0
    3.7660   -4.3870    1.9380 H   0  0
   -1.0550    5.4980   -3.1110 H   0  0
  1  2  2  0
  1  3  2  0
  1  4  1  0
  1  5  1  0
  4  6  1  0
  6  7  2  0
  6  8  1  0
  7  9  1  0
  8 10  2  0
  9 11  2  0
  9 12  1  0
 11 13  1  0
 12 14  1  0
 12 15  1  0
 13 16  2  0
 13 17  1  0
 15 18  2  0
 15 19  1  0
 16 20  1  0
 17 21  1  0
 17 22  2  0
 18 23  1  0
 19 24  2  0
 20 25  2  0
 21 26  1  0
 23 27  1  0
 23 28  2  0
 10 11  1  0
 14 16  1  0
 22 25  1  0
 24 28  1  0
  4 29  1  0
  5 30  1  0
  5 31  1  0
  5 32  1  0
  7 33  1  0
  8 34  1  0
 10 35  1  0
 12 36  1  0
 18 37  1  0
 19 38  1  0
 20 39  1  0
 22 40  1  0
 24 41  1  0
 25 42  1  0
 26 43  1  0
 26 44  1  0
 26 45  1  0
 28 46  1  0
M  END
> <Name>
CHEMBL65354

> <IC50 nM>
3

> <Molecule_ChEMBL_ID>
CHEMBL65354

> <Smiles>
COc1cccc2c1-c1ccc(NS(C)(=O)=O)cc1C(c1cccc(F)c1)O2

$$$$
CHEMBL65074
  SciTegic08162514323D

 49 52  0  0  1  0            999 V2000
   -4.3320   -1.4800    1.0720 S   0  0
   -5.6370   -0.8960    1.3160 O   0  0
   -4.3790   -2.6430    0.2010 O   0  0
   -3.4260   -0.3570    0.3360 N   0  0
   -3.6090   -1.9610    2.6370 C   0  0
   -2.0940   -0.5020    0.2790 C   0  0
   -4.0630    0.8200   -0.2700 C   0  0
   -1.2520    0.6290    0.1600 C   0  0
   -1.5120   -1.7890    0.3340 C   0  0
    0.1640    0.4900    0.1000 C   0  0
   -0.1090   -1.9430    0.2870 C   0  0
    0.7500   -0.8110    0.1990 C   0  0
    1.0510    1.6880   -0.0430 C   0  0  1  0  0  0
    2.2320   -0.9240    0.2010 C   0  0
    2.3570    1.3710   -0.5430 O   0  0
    0.4860    2.7340   -0.9450 C   0  0
    2.9750    0.2170   -0.2210 C   0  0
    2.9510   -2.1000    0.5920 C   0  0
    0.1370    3.9960   -0.4300 C   0  0
    0.3050    2.4630   -2.3130 C   0  0
    4.3850    0.1640   -0.3220 C   0  0
    2.3480   -3.1950    1.0720 O   0  0
    4.3610   -2.1370    0.4940 C   0  0
   -0.3940    4.9810   -1.2790 C   0  0
   -0.2270    3.4490   -3.1620 C   0  0
    5.0780   -1.0120    0.0310 C   0  0
    3.0240   -4.4380    0.9530 C   0  0
   -0.5760    4.7070   -2.6450 C   0  0
   -4.2130   -2.6620    3.2110 H   0  0
   -3.4530   -1.0740    3.2500 H   0  0
   -2.6370   -2.4220    2.4610 H   0  0
   -3.5640    1.2030   -1.1600 H   0  0
   -4.1000    1.6250    0.4650 H   0  0
   -5.0880    0.5700   -0.5450 H   0  0
   -1.6950    1.6130    0.1170 H   0  0
   -2.1310   -2.6720    0.4140 H   0  0
    0.2560   -2.9570    0.3160 H   0  0
    1.1780    2.1250    0.9490 H   0  0
    0.2730    4.2130    0.6210 H   0  0
    0.5720    1.4960   -2.7170 H   0  0
    4.9360    1.0250   -0.6680 H   0  0
    4.9010   -3.0290    0.7770 H   0  0
   -0.6620    5.9490   -0.8810 H   0  0
   -0.3650    3.2380   -4.2130 H   0  0
    6.1540   -1.0510   -0.0490 H   0  0
    2.3180   -5.2340    1.1890 H   0  0
    3.4880   -4.4800   -0.0310 H   0  0
    3.8200   -4.4650    1.6970 H   0  0
   -0.9840    5.4650   -3.2990 H   0  0
  1  2  2  0
  1  3  2  0
  1  4  1  0
  1  5  1  0
  4  6  1  0
  4  7  1  0
  6  8  2  0
  6  9  1  0
  8 10  1  0
  9 11  2  0
 10 12  2  0
 10 13  1  0
 12 14  1  0
 13 15  1  0
 13 16  1  0
 14 17  2  0
 14 18  1  0
 16 19  2  0
 16 20  1  0
 17 21  1  0
 18 22  1  0
 18 23  2  0
 19 24  1  0
 20 25  2  0
 21 26  2  0
 22 27  1  0
 24 28  2  0
 11 12  1  0
 15 17  1  0
 23 26  1  0
 25 28  1  0
  5 29  1  0
  5 30  1  0
  5 31  1  0
  7 32  1  0
  7 33  1  0
  7 34  1  0
  8 35  1  0
  9 36  1  0
 11 37  1  0
 13 38  1  0
 19 39  1  0
 20 40  1  0
 21 41  1  0
 23 42  1  0
 24 43  1  0
 25 44  1  0
 26 45  1  0
 27 46  1  0
 27 47  1  0
 27 48  1  0
 28 49  1  0
M  END
> <Name>
CHEMBL65074

> <IC50 nM>
1053

> <Molecule_ChEMBL_ID>
CHEMBL65074

> <Smiles>
COc1cccc2c1-c1ccc(N(C)S(C)(=O)=O)cc1C(c1ccccc1)O2

$$$$
CHEMBL81591
  SciTegic08162514323D

 54 58  0  0  1  0            999 V2000
   -5.0120    6.8810   -0.3440 F   0  0
   -4.6150    5.6110   -0.3080 C   0  0
   -5.1970    4.7190    0.6100 C   0  0
   -3.6130    5.1620   -1.1870 C   0  0
   -4.7790    3.3770    0.6490 C   0  0
   -3.1930    3.8220   -1.1500 C   0  0
   -3.7750    2.9260   -0.2320 C   0  0
   -3.3710    1.6290   -0.1950 N   0  0
   -4.2090    0.5590   -0.1370 N   0  0
   -2.0800    1.1990   -0.2150 C   0  0
   -3.5510   -0.6310   -0.1010 C   0  0
   -2.2340   -0.1740   -0.1380 C   0  0
   -0.7890    1.9000   -0.2950 C   0  0
   -0.9860   -1.0410   -0.0760 C   0  0
    0.3400    1.1800   -0.4740 C   0  0
    0.3030   -0.3520   -0.6440 C   0  0  1  0  0  0
    1.6740    1.8990   -0.5530 C   0  0
    1.5410   -1.0250    0.0100 C   0  0  1  0  0  0
    0.3440   -0.5760   -2.1640 C   0  0
    2.8220    1.1410    0.1190 C   0  0
    1.6290   -2.5210   -0.3220 C   0  0  1  0  0  0
    2.8610   -0.3200   -0.3300 C   0  0
    2.2930   -2.6600   -1.5580 O   0  0
    2.3710   -3.2710    0.7270 C   0  0
    3.7730   -3.3670    0.6620 C   0  0
    1.6720   -3.8850    1.7800 C   0  0
    4.4750   -4.0760    1.6530 C   0  0
    2.3750   -4.5940    2.7700 C   0  0
    3.7750   -4.6890    2.7070 C   0  0
   -5.9650    5.0610    1.2870 H   0  0
   -3.1640    5.8460   -1.8920 H   0  0
   -5.2380    2.7070    1.3620 H   0  0
   -2.4240    3.4940   -1.8340 H   0  0
   -3.9730   -1.6250   -0.0530 H   0  0
   -0.7520    2.9790   -0.2190 H   0  0
   -1.1720   -1.9900   -0.5820 H   0  0
   -0.8440   -1.2870    0.9770 H   0  0
    1.9160    2.0490   -1.6050 H   0  0
    1.6000    2.8930   -0.1150 H   0  0
    1.4240   -0.9530    1.0940 H   0  0
   -0.4550   -0.0210   -2.6560 H   0  0
    1.3030   -0.2600   -2.5760 H   0  0
    0.2110   -1.6330   -2.4000 H   0  0
    2.7070    1.1860    1.2030 H   0  0
    3.7700    1.6290   -0.1110 H   0  0
    0.6270   -2.9380   -0.4260 H   0  0
    3.0530   -0.3730   -1.4020 H   0  0
    3.6930   -0.8260    0.1600 H   0  0
    2.2270   -3.5920   -1.8140 H   0  0
    4.3160   -2.8980   -0.1440 H   0  0
    0.5960   -3.8140    1.8340 H   0  0
    5.5510   -4.1500    1.6040 H   0  0
    1.8380   -5.0660    3.5800 H   0  0
    4.3150   -5.2360    3.4670 H   0  0
  1  2  1  0
  2  3  2  0
  2  4  1  0
  3  5  1  0
  4  6  2  0
  5  7  2  0
  7  8  1  0
  8  9  1  0
  8 10  1  0
  9 11  2  0
 10 12  2  0
 10 13  1  0
 12 14  1  0
 13 15  2  0
 14 16  1  0
 15 17  1  0
 16 18  1  0
 16 19  1  0
 17 20  1  0
 18 21  1  0
 18 22  1  0
 21 23  1  0
 21 24  1  0
 24 25  2  0
 24 26  1  0
 25 27  1  0
 26 28  2  0
 27 29  2  0
  6  7  1  0
 11 12  1  0
 15 16  1  0
 20 22  1  0
 28 29  1  0
  3 30  1  0
  4 31  1  0
  5 32  1  0
  6 33  1  0
 11 34  1  0
 13 35  1  0
 14 36  1  0
 14 37  1  0
 17 38  1  0
 17 39  1  0
 18 40  1  0
 19 41  1  0
 19 42  1  0
 19 43  1  0
 20 44  1  0
 20 45  1  0
 21 46  1  0
 22 47  1  0
 22 48  1  0
 23 49  1  0
 25 50  1  0
 26 51  1  0
 27 52  1  0
 28 53  1  0
 29 54  1  0
M  END
> <Name>
CHEMBL81591

> <IC50 nM>
8.4

> <Molecule_ChEMBL_ID>
CHEMBL81591

> <Smiles>
C[C@]12Cc3cnn(-c4ccc(F)cc4)c3C=C1CCC[C@@H]2[C@@H](O)c1ccccc1

$$$$
CHEMBL81397
  SciTegic08162514323D

 55 59  0  0  1  0            999 V2000
   -5.0840    6.9880   -0.4260 F   0  0
   -4.6880    5.7190   -0.3910 C   0  0
   -5.2720    4.8260    0.5250 C   0  0
   -3.6860    5.2700   -1.2680 C   0  0
   -4.8540    3.4840    0.5640 C   0  0
   -3.2660    3.9300   -1.2300 C   0  0
   -3.8480    3.0330   -0.3140 C   0  0
   -3.4430    1.7360   -0.2770 N   0  0
   -4.2810    0.6660   -0.2190 N   0  0
   -2.1540    1.3070   -0.2970 C   0  0
   -3.6230   -0.5230   -0.1840 C   0  0
   -2.3090   -0.0660   -0.2210 C   0  0
   -0.8630    2.0080   -0.3770 C   0  0
   -1.0590   -0.9340   -0.1580 C   0  0
    0.2680    1.2870   -0.5590 C   0  0
    0.2300   -0.2440   -0.7280 C   0  0  1  0  0  0
    1.6020    2.0060   -0.6370 C   0  0
    1.4690   -0.9180   -0.0720 C   0  0  1  0  0  0
    0.2690   -0.4690   -2.2460 C   0  0
    2.7500    1.2480    0.0350 C   0  0
    1.5570   -2.4140   -0.4040 C   0  0  1  0  0  0
    2.7890   -0.2130   -0.4140 C   0  0
    2.2230   -2.5530   -1.6390 O   0  0
    2.2970   -3.1640    0.6450 C   0  0
    3.6970   -3.2560    0.5860 C   0  0
    1.5960   -3.7810    1.6930 C   0  0
    4.3970   -3.9670    1.5780 C   0  0
    2.2970   -4.4900    2.6860 C   0  0
    3.6970   -4.5860    2.6290 C   0  0
    4.3540   -5.2520    3.5590 O   0  0
   -6.0410    5.1660    1.2010 H   0  0
   -3.2340    5.9530   -1.9730 H   0  0
   -5.3130    2.8130    1.2750 H   0  0
   -2.4940    3.6040   -1.9140 H   0  0
   -4.0470   -1.5180   -0.1350 H   0  0
   -0.8240    3.0860   -0.3030 H   0  0
   -1.2440   -1.8830   -0.6640 H   0  0
   -0.9160   -1.1800    0.8950 H   0  0
    1.8440    2.1560   -1.6890 H   0  0
    1.5250    3.0000   -0.1970 H   0  0
    1.3520   -0.8460    1.0100 H   0  0
   -0.5310    0.0800   -2.7380 H   0  0
    1.2270   -0.1460   -2.6580 H   0  0
    0.1440   -1.5250   -2.4820 H   0  0
    2.6330    1.2930    1.1190 H   0  0
    3.6970    1.7360   -0.1930 H   0  0
    0.5550   -2.8280   -0.5100 H   0  0
    2.9790   -0.2660   -1.4860 H   0  0
    3.6210   -0.7190    0.0760 H   0  0
    2.1600   -3.4860   -1.8950 H   0  0
    4.2420   -2.7830   -0.2190 H   0  0
    0.5180   -3.7150    1.7440 H   0  0
    5.4730   -4.0350    1.5290 H   0  0
    1.7540   -4.9650    3.4900 H   0  0
    3.8610   -5.6720    4.2750 H   0  0
  1  2  1  0
  2  3  2  0
  2  4  1  0
  3  5  1  0
  4  6  2  0
  5  7  2  0
  7  8  1  0
  8  9  1  0
  8 10  1  0
  9 11  2  0
 10 12  2  0
 10 13  1  0
 12 14  1  0
 13 15  2  0
 14 16  1  0
 15 17  1  0
 16 18  1  0
 16 19  1  0
 17 20  1  0
 18 21  1  0
 18 22  1  0
 21 23  1  0
 21 24  1  0
 24 25  2  0
 24 26  1  0
 25 27  1  0
 26 28  2  0
 27 29  2  0
 29 30  1  0
  6  7  1  0
 11 12  1  0
 15 16  1  0
 20 22  1  0
 28 29  1  0
  3 31  1  0
  4 32  1  0
  5 33  1  0
  6 34  1  0
 11 35  1  0
 13 36  1  0
 14 37  1  0
 14 38  1  0
 17 39  1  0
 17 40  1  0
 18 41  1  0
 19 42  1  0
 19 43  1  0
 19 44  1  0
 20 45  1  0
 20 46  1  0
 21 47  1  0
 22 48  1  0
 22 49  1  0
 23 50  1  0
 25 51  1  0
 26 52  1  0
 27 53  1  0
 28 54  1  0
 30 55  1  0
M  END
> <Name>
CHEMBL81397

> <IC50 nM>
9.5

> <Molecule_ChEMBL_ID>
CHEMBL81397

> <Smiles>
C[C@]12Cc3cnn(-c4ccc(F)cc4)c3C=C1CCC[C@@H]2[C@@H](O)c1ccc(O)cc1

$$$$
CHEMBL222127
  SciTegic08162514323D

 63 67  0  0  1  0            999 V2000
   -2.0000    3.7970    1.7930 F   0  0
   -1.4380    3.3980    0.6560 C   0  0
   -1.0920    4.3400   -0.3320 C   0  0
   -1.1880    2.0310    0.4430 C   0  0
   -1.3200    5.6230   -0.1390 O   0  0
   -0.4980    3.9060   -1.5310 C   0  0
   -0.5960    1.6000   -0.7560 C   0  0
   -0.9020    6.5330   -1.1460 C   0  0
   -0.2500    2.5390   -1.7460 C   0  0
   -0.3360    0.1450   -0.9690 C   0  0  2  0  0  0
    0.3100    2.1450   -2.8890 F   0  0
   -0.9860   -0.6820    0.1450 C   0  0
    1.1680   -0.1520   -1.1840 C   0  0
   -2.2810   -1.1000    0.0920 C   0  0
   -0.1110   -1.0040    1.3580 C   0  0  2  0  0  0
    1.9730   -0.1890    0.1270 C   0  0  1  0  0  0
   -2.9140   -1.7990    1.2460 C   0  0
   -3.1560   -0.8420   -1.1330 C   0  0
    1.3460   -1.3070    0.9750 C   0  0  1  0  0  0
   -0.6310   -2.1930    2.1800 C   0  0
    3.4530   -0.6500    0.0720 C   0  0  2  0  0  0
    1.8850    1.1540    0.8770 C   0  0
   -4.1920   -2.2380    1.2070 C   0  0
   -2.1110   -2.0200    2.5080 C   0  0
   -4.3300   -1.8200   -1.2970 C   0  0
    2.3530   -1.4510    2.1210 C   0  0
    4.3120    0.4080   -0.3200 O   0  0
    3.6890   -1.7850   -0.8320 C   0  0
    3.7130   -1.0370    1.5410 C   0  0
   -5.0240   -2.1290    0.0020 C   0  0
    3.8910   -2.7030   -1.5620 C   0  0
   -6.2210   -2.2810    0.0610 O   0  0
    4.1390   -3.8280   -2.4610 C   0  0
   -1.4530    1.3110    1.2050 H   0  0
   -0.2330    4.6270   -2.2910 H   0  0
   -1.2130    7.5350   -0.8520 H   0  0
    0.1640    6.3910   -1.3140 H   0  0
   -1.4220    6.2830   -2.0700 H   0  0
   -0.7870   -0.0820   -1.9300 H   0  0
    1.2400   -1.1190   -1.6840 H   0  0
    1.6110    0.5660   -1.8730 H   0  0
   -0.1250   -0.1250    2.0080 H   0  0
   -2.5860   -0.9140   -2.0530 H   0  0
   -3.5370    0.1760   -1.0780 H   0  0
    1.3530   -2.2290    0.4040 H   0  0
   -0.0670   -2.2970    3.1060 H   0  0
   -0.4920   -3.1230    1.6270 H   0  0
    0.8850    1.3400    1.2680 H   0  0
    2.1420    1.9800    0.2170 H   0  0
    2.5780    1.1720    1.7190 H   0  0
   -4.6230   -2.6930    2.0860 H   0  0
   -2.2480   -1.1660    3.1720 H   0  0
   -2.4730   -2.8980    3.0450 H   0  0
   -5.0490   -1.4240   -2.0180 H   0  0
   -3.9650   -2.7600   -1.7150 H   0  0
    2.3670   -2.4630    2.5020 H   0  0
    2.0900   -0.8030    2.9420 H   0  0
    4.0470    0.6800   -1.2130 H   0  0
    4.0840   -0.1950    2.1110 H   0  0
    4.4530   -1.8220    1.6520 H   0  0
    5.2070   -4.0250   -2.5310 H   0  0
    3.7580   -3.6060   -3.4590 H   0  0
    3.6430   -4.7250   -2.0920 H   0  0
  1  2  1  0
  2  3  2  0
  2  4  1  0
  3  5  1  0
  3  6  1  0
  4  7  2  0
  5  8  1  0
  6  9  2  0
 10  7  1  0
  9 11  1  0
 10 12  1  0
 10 13  1  0
 12 14  2  0
 12 15  1  0
 13 16  1  0
 14 17  1  0
 14 18  1  0
 15 19  1  0
 15 20  1  0
 16 21  1  0
 16 22  1  0
 17 23  2  0
 17 24  1  0
 18 25  1  0
 19 26  1  0
 21 27  1  0
 21 28  1  0
 21 29  1  0
 23 30  1  0
 28 31  3  0
 30 32  2  0
 31 33  1  0
  7  9  1  0
 16 19  1  0
 20 24  1  0
 25 30  1  0
 26 29  1  0
  4 34  1  0
  6 35  1  0
  8 36  1  0
  8 37  1  0
  8 38  1  0
 10 39  1  0
 13 40  1  0
 13 41  1  0
 15 42  1  0
 18 43  1  0
 18 44  1  0
 19 45  1  0
 20 46  1  0
 20 47  1  0
 22 48  1  0
 22 49  1  0
 22 50  1  0
 23 51  1  0
 24 52  1  0
 24 53  1  0
 25 54  1  0
 25 55  1  0
 26 56  1  0
 26 57  1  0
 27 58  1  0
 29 59  1  0
 29 60  1  0
 33 61  1  0
 33 62  1  0
 33 63  1  0
M  END
> <Name>
CHEMBL222127

> <IC50 nM>
3.2

> <Molecule_ChEMBL_ID>
CHEMBL222127

> <Smiles>
CC#C[C@]1(O)CC[C@H]2[C@@H]3CCC4=CC(=O)CCC4=C3[C@@H](c3cc(F)c(OC)cc3F)C[C@@]21C

$$$$
CHEMBL362914
  SciTegic08162514323D

 53 57  0  0  1  0            999 V2000
    4.3830   -5.4590    3.7170 F   0  0
    3.7460   -4.7790    2.7660 C   0  0
    2.3870   -4.6740    2.8180 N   0  0
    4.4870   -4.1820    1.7250 C   0  0
    1.7210   -3.9790    1.8500 C   0  0
    3.8110   -3.4630    0.7230 C   0  0
    2.4100   -3.3610    0.7850 C   0  0
    1.6640   -2.6110   -0.2580 C   0  0  2  0  0  0
    2.3220   -2.7500   -1.4980 O   0  0
    1.5760   -1.1170    0.0740 C   0  0  2  0  0  0
    0.3400   -0.4430   -0.5820 C   0  0  2  0  0  0
    2.8970   -0.4120   -0.2680 C   0  0
    0.3750    1.0880   -0.4120 C   0  0
   -0.9510   -1.1330   -0.0120 C   0  0
    0.3790   -0.6700   -2.1020 C   0  0
    2.8580    1.0490    0.1820 C   0  0
   -0.7540    1.8090   -0.2300 C   0  0
    1.7110    1.8070   -0.4900 C   0  0
   -2.1990   -0.2660   -0.0740 C   0  0
   -2.0450    1.1070   -0.1500 C   0  0
   -3.5140   -0.7250   -0.0370 C   0  0
   -3.3340    1.5370   -0.1310 N   0  0
   -4.1720    0.4670   -0.0720 N   0  0
   -3.7380    2.8320   -0.1680 C   0  0
   -3.1580    3.7280   -1.0860 C   0  0
   -4.7420    3.2850    0.7130 C   0  0
   -3.5780    5.0680   -1.1210 C   0  0
   -5.1600    4.6250    0.6740 C   0  0
   -4.5780    5.5180   -0.2440 C   0  0
   -4.9750    6.7890   -0.2790 F   0  0
    5.5610   -4.2720    1.6950 H   0  0
    0.6450   -3.9040    1.9040 H   0  0
    4.3650   -3.0000   -0.0820 H   0  0
    0.6620   -3.0290   -0.3590 H   0  0
    2.2640   -3.6840   -1.7500 H   0  0
    1.4590   -1.0430    1.1560 H   0  0
    3.0900   -0.4670   -1.3400 H   0  0
    3.7290   -0.9180    0.2250 H   0  0
   -1.1370   -2.0820   -0.5180 H   0  0
   -0.8080   -1.3770    1.0410 H   0  0
   -0.4160   -0.1110   -2.5960 H   0  0
    1.3400   -0.3590   -2.5120 H   0  0
    0.2420   -1.7250   -2.3380 H   0  0
    2.7400    1.0920    1.2660 H   0  0
    3.8070    1.5370   -0.0450 H   0  0
   -0.7170    2.8870   -0.1540 H   0  0
    1.9510    1.9570   -1.5430 H   0  0
    1.6350    2.8010   -0.0510 H   0  0
   -3.9370   -1.7190    0.0120 H   0  0
   -2.3870    3.4020   -1.7700 H   0  0
   -5.2010    2.6130    1.4240 H   0  0
   -3.1290    5.7520   -1.8280 H   0  0
   -5.9300    4.9670    1.3520 H   0  0
  1  2  1  0
  2  3  2  0
  2  4  1  0
  3  5  1  0
  4  6  2  0
  5  7  2  0
  7  8  1  0
  8  9  1  0
  8 10  1  0
 10 11  1  0
 10 12  1  0
 11 13  1  0
 11 14  1  0
 11 15  1  0
 12 16  1  0
 13 17  2  0
 13 18  1  0
 14 19  1  0
 17 20  1  0
 19 21  1  0
 20 22  1  0
 21 23  2  0
 22 24  1  0
 24 25  2  0
 24 26  1  0
 25 27  1  0
 26 28  2  0
 27 29  2  0
 29 30  1  0
  6  7  1  0
 16 18  1  0
 19 20  2  0
 22 23  1  0
 28 29  1  0
  4 31  1  0
  5 32  1  0
  6 33  1  0
  8 34  1  0
  9 35  1  0
 10 36  1  0
 12 37  1  0
 12 38  1  0
 14 39  1  0
 14 40  1  0
 15 41  1  0
 15 42  1  0
 15 43  1  0
 16 44  1  0
 16 45  1  0
 17 46  1  0
 18 47  1  0
 18 48  1  0
 21 49  1  0
 25 50  1  0
 26 51  1  0
 27 52  1  0
 28 53  1  0
M  END
> <Name>
CHEMBL362914

> <IC50 nM>
13.6

> <Molecule_ChEMBL_ID>
CHEMBL362914

> <Smiles>
C[C@]12Cc3cnn(-c4ccc(F)cc4)c3C=C1CCC[C@@H]2[C@@H](O)c1ccc(F)nc1

$$$$
CHEMBL184308
  SciTegic08162514323D

 74 77  0  0  0  0            999 V2000
    1.6950    1.8360   -4.8120 S   0  0
    0.6020    2.5410   -5.4570 O   0  0
    2.5450    2.7010   -4.0140 O   0  0
    1.0470    0.7340   -3.8160 N   0  0
    2.6950    1.0490   -6.0700 C   0  0
    0.3320    1.1410   -2.7170 C   0  0
    0.1540    0.2890   -1.5990 C   0  0
   -0.2290    2.4320   -2.7110 C   0  0
   -0.5880    0.7440   -0.4840 C   0  0
    0.7480   -1.0840   -1.5990 C   0  0
   -0.9630    2.8790   -1.6010 C   0  0
   -0.7810   -0.0530    0.6150 N   0  0
   -1.1430    2.0390   -0.4920 C   0  0
   -2.1350   -0.4260    1.0510 C   0  0
    0.3750   -0.5450    1.3790 C   0  0
   -2.6600   -1.5780    0.2740 C   0  0
    1.1250    0.5700    2.0160 C   0  0
   -3.3240   -1.3610   -0.9470 C   0  0
   -2.4920   -2.8890    0.7560 C   0  0
    0.9710    0.8280    3.3910 C   0  0
    1.9900    1.3670    1.2460 C   0  0
   -3.8200   -2.4510   -1.6810 C   0  0
   -2.9900   -3.9770    0.0200 C   0  0
    1.6800    1.8830    3.9920 C   0  0
    2.6990    2.4220    1.8480 C   0  0
   -3.6540   -3.7620   -1.2010 C   0  0
    2.5450    2.6800    3.2210 C   0  0
   -4.1210   -4.7850   -1.8900 O   0  0
    3.2950    3.7930    3.8580 C   0  0
   -3.4200   -5.9010   -1.8900 C   0  0
    2.4200    5.0330    4.0350 C   0  0
   -4.0760   -7.1470   -1.8900 C   0  0
   -2.0160   -5.8540   -1.8900 C   0  0
    3.1640    6.1930    4.6980 C   0  0
   -3.3300   -8.3360   -1.8900 C   0  0
   -1.2680   -7.0450   -1.8900 C   0  0
    2.2500    7.3360    5.0490 C   0  0
   -1.9260   -8.2870   -1.8900 C   0  0
    2.1500    8.3010    4.3260 O   0  0
    1.5840    7.1950    6.1920 O   0  0
    1.1660   -0.2400   -4.0040 H   0  0
    3.3050    1.7380   -6.6560 H   0  0
    2.0490    0.5080   -6.7620 H   0  0
    3.3650    0.3260   -5.6030 H   0  0
   -0.1020    3.0980   -3.5550 H   0  0
    0.0740   -1.7720   -1.0880 H   0  0
    0.9610   -1.3890   -2.6250 H   0  0
    1.6910   -1.0720   -1.0530 H   0  0
   -1.3910    3.8690   -1.6010 H   0  0
   -1.7130    2.4040    0.3520 H   0  0
   -2.8010    0.4280    0.9280 H   0  0
   -2.1130   -0.6820    2.1100 H   0  0
    1.0370   -1.0940    0.7110 H   0  0
    0.0270   -1.2340    2.1490 H   0  0
   -3.4550   -0.3570   -1.3240 H   0  0
   -1.9840   -3.0630    1.6940 H   0  0
    0.3090    0.2210    3.9890 H   0  0
    2.1130    1.1740    0.1900 H   0  0
   -4.3300   -2.2790   -2.6170 H   0  0
   -2.8590   -4.9830    0.3950 H   0  0
    1.5570    2.0760    5.0470 H   0  0
    3.3610    3.0290    1.2500 H   0  0
    4.1780    4.0270    3.2600 H   0  0
    3.6930    3.4630    4.8190 H   0  0
    1.5140    4.7910    4.5920 H   0  0
    1.9940    5.3440    3.0800 H   0  0
   -5.1540   -7.1880   -1.8900 H   0  0
   -1.5060   -4.9000   -1.8900 H   0  0
    3.9080    6.5250    3.9730 H   0  0
    3.6930    5.8540    5.5880 H   0  0
   -3.8360   -9.2910   -1.8900 H   0  0
   -0.1890   -7.0040   -1.8900 H   0  0
   -1.3520   -9.2010   -1.8900 H   0  0
    1.6580    6.3670    6.6840 H   0  0
  1  2  2  0
  1  3  2  0
  1  4  1  0
  1  5  1  0
  4  6  1  0
  6  7  2  0
  6  8  1  0
  7  9  1  0
  7 10  1  0
  8 11  2  0
  9 12  1  0
  9 13  2  0
 12 14  1  0
 12 15  1  0
 14 16  1  0
 15 17  1  0
 16 18  2  0
 16 19  1  0
 17 20  2  0
 17 21  1  0
 18 22  1  0
 19 23  2  0
 20 24  1  0
 21 25  2  0
 22 26  2  0
 24 27  2  0
 26 28  1  0
 27 29  1  0
 28 30  1  0
 29 31  1  0
 30 32  2  0
 30 33  1  0
 31 34  1  0
 32 35  1  0
 33 36  2  0
 34 37  1  0
 35 38  2  0
 37 39  2  0
 37 40  1  0
 11 13  1  0
 23 26  1  0
 25 27  1  0
 36 38  1  0
  4 41  1  0
  5 42  1  0
  5 43  1  0
  5 44  1  0
  8 45  1  0
 10 46  1  0
 10 47  1  0
 10 48  1  0
 11 49  1  0
 13 50  1  0
 14 51  1  0
 14 52  1  0
 15 53  1  0
 15 54  1  0
 18 55  1  0
 19 56  1  0
 20 57  1  0
 21 58  1  0
 22 59  1  0
 23 60  1  0
 24 61  1  0
 25 62  1  0
 29 63  1  0
 29 64  1  0
 31 65  1  0
 31 66  1  0
 32 67  1  0
 33 68  1  0
 34 69  1  0
 34 70  1  0
 35 71  1  0
 36 72  1  0
 38 73  1  0
 40 74  1  0
M  END
> <Name>
CHEMBL184308

> <IC50 nM>
170

> <Molecule_ChEMBL_ID>
CHEMBL184308

> <Smiles>
Cc1c(NS(C)(=O)=O)cccc1N(Cc1ccc(CCCC(=O)O)cc1)Cc1ccc(Oc2ccccc2)cc1

$$$$
CHEMBL184120
  SciTegic08162514323D

 74 77  0  0  0  0            999 V2000
    5.7130    2.6210    4.8220 S   0  0
    5.8630    1.2600    5.3070 O   0  0
    6.6540    2.9610    3.7670 O   0  0
    4.2210    2.7600    4.2070 N   0  0
    5.9490    3.7500    6.1910 C   0  0
    3.8110    1.9140    3.2090 C   0  0
    2.5000    1.9860    2.6760 C   0  0
    4.7170    0.9570    2.7130 C   0  0
    2.1150    1.0960    1.6440 C   0  0
    1.5310    3.0000    3.1970 C   0  0
    4.3280    0.0780    1.6910 C   0  0
    0.8540    1.1370    1.1030 N   0  0
    3.0310    0.1460    1.1580 C   0  0
   -0.3280    0.8120    1.9120 C   0  0
    0.6720    1.5120   -0.3070 C   0  0
   -1.5760    1.3320    1.2930 C   0  0
    0.1660    0.3710   -1.1150 C   0  0
   -2.4750    0.4490    0.6680 C   0  0
   -1.8570    2.7110    1.3300 C   0  0
   -0.4360    0.6030   -2.3630 C   0  0
    0.2890   -0.9430   -0.6310 C   0  0
   -3.6540    0.9410    0.0820 C   0  0
   -3.0350    3.2030    0.7440 C   0  0
   -0.9120   -0.4750   -3.1270 C   0  0
   -0.1890   -2.0220   -1.3950 C   0  0
   -3.9340    2.3200    0.1190 C   0  0
   -4.6040    0.0080   -0.5760 C   0  0
   -0.7930   -1.7910   -2.6450 C   0  0
   -4.3130   -0.1290   -2.0720 C   0  0
   -1.2400   -2.8030   -3.3600 O   0  0
   -5.3930   -0.9160   -2.8150 C   0  0
   -0.5410   -3.9180   -3.3600 C   0  0
   -5.2130   -0.8690   -4.3070 C   0  0
   -1.1950   -5.1620   -3.3600 C   0  0
    0.8650   -3.8710   -3.3600 C   0  0
   -5.9810   -0.2500   -5.0060 O   0  0
   -4.1700   -1.5490   -4.7740 O   0  0
   -0.4510   -6.3540   -3.3600 C   0  0
    1.6110   -5.0630   -3.3600 C   0  0
    0.9530   -6.3030   -3.3600 C   0  0
    3.6000    3.4610    4.5570 H   0  0
    6.9340    3.6930    6.6540 H   0  0
    5.2050    3.5450    6.9610 H   0  0
    5.8010    4.7730    5.8480 H   0  0
    5.7210    0.8870    3.1070 H   0  0
    2.0470    3.9470    3.3570 H   0  0
    0.6910    3.0880    2.5080 H   0  0
    1.1410    2.6680    4.1580 H   0  0
    5.0270   -0.6540    1.3140 H   0  0
    2.7540   -0.5430    0.3730 H   0  0
   -0.2110    1.2400    2.9060 H   0  0
   -0.4020   -0.2700    2.0210 H   0  0
    1.6250    1.8500   -0.7150 H   0  0
   -0.0310    2.3420   -0.3710 H   0  0
   -2.2600   -0.6090    0.6390 H   0  0
   -1.1700    3.3950    1.8070 H   0  0
   -0.5310    1.6110   -2.7420 H   0  0
    0.7500   -1.1310    0.3280 H   0  0
   -3.2520    4.2620    0.7710 H   0  0
   -1.3750   -0.2910   -4.0860 H   0  0
   -0.0940   -3.0290   -1.0200 H   0  0
   -4.8380    2.7050   -0.3280 H   0  0
   -5.6250    0.3530   -0.4140 H   0  0
   -4.5610   -0.9630   -0.0840 H   0  0
   -3.3320   -0.5760   -2.2330 H   0  0
   -4.1680    0.8500   -2.5280 H   0  0
   -6.3420   -0.4570   -2.5390 H   0  0
   -5.4140   -1.9530   -2.4770 H   0  0
   -2.2750   -5.2050   -3.3600 H   0  0
    1.3730   -2.9180   -3.3600 H   0  0
   -3.6050   -2.0310   -4.1560 H   0  0
   -0.9570   -7.3090   -3.3600 H   0  0
    2.6910   -5.0220   -3.3600 H   0  0
    1.5270   -7.2190   -3.3600 H   0  0
  1  2  2  0
  1  3  2  0
  1  4  1  0
  1  5  1  0
  4  6  1  0
  6  7  2  0
  6  8  1  0
  7  9  1  0
  7 10  1  0
  8 11  2  0
  9 12  1  0
  9 13  2  0
 12 14  1  0
 12 15  1  0
 14 16  1  0
 15 17  1  0
 16 18  2  0
 16 19  1  0
 17 20  2  0
 17 21  1  0
 18 22  1  0
 19 23  2  0
 20 24  1  0
 21 25  2  0
 22 26  2  0
 22 27  1  0
 24 28  2  0
 27 29  1  0
 28 30  1  0
 29 31  1  0
 30 32  1  0
 31 33  1  0
 32 34  2  0
 32 35  1  0
 33 36  2  0
 33 37  1  0
 34 38  1  0
 35 39  2  0
 38 40  2  0
 11 13  1  0
 23 26  1  0
 25 28  1  0
 39 40  1  0
  4 41  1  0
  5 42  1  0
  5 43  1  0
  5 44  1  0
  8 45  1  0
 10 46  1  0
 10 47  1  0
 10 48  1  0
 11 49  1  0
 13 50  1  0
 14 51  1  0
 14 52  1  0
 15 53  1  0
 15 54  1  0
 18 55  1  0
 19 56  1  0
 20 57  1  0
 21 58  1  0
 23 59  1  0
 24 60  1  0
 25 61  1  0
 26 62  1  0
 27 63  1  0
 27 64  1  0
 29 65  1  0
 29 66  1  0
 31 67  1  0
 31 68  1  0
 34 69  1  0
 35 70  1  0
 37 71  1  0
 38 72  1  0
 39 73  1  0
 40 74  1  0
M  END
> <Name>
CHEMBL184120

> <IC50 nM>
56

> <Molecule_ChEMBL_ID>
CHEMBL184120

> <Smiles>
Cc1c(NS(C)(=O)=O)cccc1N(Cc1ccc(Oc2ccccc2)cc1)Cc1cccc(CCCC(=O)O)c1

$$$$
CHEMBL204191
  SciTegic08162514323D

 51 53  0  0  0  0            999 V2000
    3.3180    2.2230    1.3540 O   0  0
    3.7680    1.2910    0.5350 C   0  0
    4.1620    2.6390    2.4180 C   0  0
    2.9260    0.7050   -0.4360 C   0  0
    5.1070    0.8750    0.6350 C   0  0
    1.5350    1.1210   -0.5570 C   0  0
    3.4320   -0.2870   -1.2970 C   0  0
    5.6090   -0.1170   -0.2250 C   0  0
    0.5020    0.1520   -0.6070 C   0  0
    1.2010    2.4940   -0.6270 C   0  0
    4.7710   -0.6970   -1.1890 C   0  0
   -0.8560    0.5530   -0.7250 C   0  0
   -0.1470    2.9010   -0.7460 C   0  0
   -1.1880    1.9360   -0.7970 C   0  0
   -1.9400   -0.4710   -0.7750 C   0  0
   -2.4790    2.3380   -0.9100 N   0  0
   -3.2250   -0.0780   -0.8870 C   0  0
   -1.6330   -1.9470   -0.7050 C   0  0
   -3.6270    1.3850   -0.9630 C   0  0
   -1.3750   -2.3400    0.6700 N   0  0
   -4.3790    1.6040   -2.2770 C   0  0
   -4.5610    1.6840    0.2130 C   0  0
   -1.0330   -3.7520    0.7400 C   0  0
   -0.7230   -4.1410    2.1600 C   0  0
   -0.7210   -5.4430    2.4810 C   0  0
    3.6310    3.3930    3.0000 H   0  0
    4.4880    1.7520    2.9610 H   0  0
    5.0450    3.1110    1.9880 H   0  0
    5.7560    1.3180    1.3750 H   0  0
    2.7990   -0.7460   -2.0450 H   0  0
    6.6390   -0.4320   -0.1430 H   0  0
    0.7520   -0.8980   -0.5550 H   0  0
    1.9750    3.2500   -0.5900 H   0  0
    5.1540   -1.4590   -1.8520 H   0  0
   -0.3690    3.9570   -0.7970 H   0  0
   -2.6950    3.3170   -0.9630 H   0  0
   -4.0020   -0.8280   -0.9220 H   0  0
   -0.7620   -2.1740   -1.3180 H   0  0
   -2.4750   -2.5190   -1.0960 H   0  0
   -2.2360   -2.1890    1.2150 H   0  0
   -3.7500    1.4010   -3.1450 H   0  0
   -4.7310    2.6330   -2.3550 H   0  0
   -5.2500    0.9490   -2.3380 H   0  0
   -4.0650    1.5410    1.1720 H   0  0
   -5.4340    1.0310    0.1880 H   0  0
   -4.9140    2.7150    0.1720 H   0  0
   -0.1700   -3.9470    0.1040 H   0  0
   -1.8670   -4.3460    0.3650 H   0  0
   -0.4960   -3.4630    2.9710 H   0  0
   -0.5180   -5.8750    3.4510 H   0  0
   -0.9510   -6.1210    1.6720 H   0  0
  1  2  1  0
  1  3  1  0
  2  4  2  0
  2  5  1  0
  4  6  1  0
  4  7  1  0
  5  8  2  0
  6  9  2  0
  6 10  1  0
  7 11  2  0
  9 12  1  0
 10 13  2  0
 12 14  2  0
 12 15  1  0
 14 16  1  0
 15 17  2  0
 15 18  1  0
 16 19  1  0
 18 20  1  0
 19 21  1  0
 19 22  1  0
 20 23  1  0
 23 24  1  0
 24 25  2  0
  8 11  1  0
 13 14  1  0
 17 19  1  0
  3 26  1  0
  3 27  1  0
  3 28  1  0
  5 29  1  0
  7 30  1  0
  8 31  1  0
  9 32  1  0
 10 33  1  0
 11 34  1  0
 13 35  1  0
 16 36  1  0
 17 37  1  0
 18 38  1  0
 18 39  1  0
 20 40  1  0
 21 41  1  0
 21 42  1  0
 21 43  1  0
 22 44  1  0
 22 45  1  0
 22 46  1  0
 23 47  1  0
 23 48  1  0
 24 49  1  0
 25 50  1  0
 25 51  1  0
M  END
> <Name>
CHEMBL204191

> <IC50 nM>
2000

> <Molecule_ChEMBL_ID>
CHEMBL204191

> <Smiles>
C=CCNCC1=CC(C)(C)Nc2ccc(-c3ccccc3OC)cc21

$$$$
CHEMBL204112
  SciTegic08162514323D

 48 50  0  0  0  0            999 V2000
   -1.6230   -2.6850    1.5230 S   0  0
   -1.2810   -4.3340    1.4000 C   0  0
   -1.7310   -2.1910   -0.1520 C   0  0
   -1.1620   -4.9200    0.3500 O   0  0
   -1.1270   -5.0550    2.7130 C   0  0
   -2.0390   -0.7150   -0.2230 C   0  0
   -0.9530    0.3090   -0.1720 C   0  0
   -3.3220   -0.3220   -0.3320 C   0  0
   -1.2850    1.6920   -0.2420 C   0  0
    0.4040   -0.0920   -0.0530 C   0  0
   -3.7250    1.1410   -0.4100 C   0  0
   -2.5760    2.0940   -0.3570 N   0  0
   -0.2440    2.6560   -0.1930 C   0  0
    1.4370    0.8770   -0.0040 C   0  0
   -4.4770    1.3600   -1.7250 C   0  0
   -4.6580    1.4400    0.7660 C   0  0
    1.1030    2.2500   -0.0740 C   0  0
    2.8260    0.4630    0.1170 C   0  0
    3.8280    1.0630   -0.6780 C   0  0
    3.1720   -0.5470    1.0390 C   0  0
    3.5310    2.0080   -1.5470 O   0  0
    5.1640    0.6470   -0.5430 C   0  0
    4.5100   -0.9550    1.1680 C   0  0
    4.6000    2.6470   -2.2290 C   0  0
    5.5060   -0.3590    0.3770 C   0  0
   -0.7850   -2.3960   -0.6540 H   0  0
   -2.5200   -2.7580   -0.6470 H   0  0
   -0.9060   -6.1170    2.6020 H   0  0
   -2.0430   -4.9630    3.2950 H   0  0
   -0.3180   -4.6050    3.2890 H   0  0
   -4.1000   -1.0720   -0.3690 H   0  0
    0.6540   -1.1420    0.0000 H   0  0
   -2.7930    3.0720   -0.4080 H   0  0
   -0.4670    3.7130   -0.2440 H   0  0
   -3.8480    1.1560   -2.5920 H   0  0
   -4.8280    2.3890   -1.8010 H   0  0
   -5.3480    0.7050   -1.7850 H   0  0
   -4.1620    1.2970    1.7270 H   0  0
   -5.5310    0.7870    0.7420 H   0  0
   -5.0120    2.4710    0.7250 H   0  0
    1.8770    3.0060   -0.0370 H   0  0
    2.4160   -1.0160    1.6540 H   0  0
    5.9340    1.1000   -1.1480 H   0  0
    4.7690   -1.7280    1.8750 H   0  0
    4.1760    3.3340   -2.9630 H   0  0
    5.2660    3.0860   -1.4840 H   0  0
    5.1620    1.8870   -2.7700 H   0  0
    6.5330   -0.6760    0.4770 H   0  0
  1  2  1  0
  1  3  1  0
  2  4  2  0
  2  5  1  0
  3  6  1  0
  6  7  1  0
  6  8  2  0
  7  9  2  0
  7 10  1  0
  8 11  1  0
  9 12  1  0
  9 13  1  0
 10 14  2  0
 11 15  1  0
 11 16  1  0
 13 17  2  0
 14 18  1  0
 18 19  2  0
 18 20  1  0
 19 21  1  0
 19 22  1  0
 20 23  2  0
 21 24  1  0
 22 25  2  0
 11 12  1  0
 14 17  1  0
 23 25  1  0
  3 26  1  0
  3 27  1  0
  5 28  1  0
  5 29  1  0
  5 30  1  0
  8 31  1  0
 10 32  1  0
 12 33  1  0
 13 34  1  0
 15 35  1  0
 15 36  1  0
 15 37  1  0
 16 38  1  0
 16 39  1  0
 16 40  1  0
 17 41  1  0
 20 42  1  0
 22 43  1  0
 23 44  1  0
 24 45  1  0
 24 46  1  0
 24 47  1  0
 25 48  1  0
M  END
> <Name>
CHEMBL204112

> <IC50 nM>
2000

> <Molecule_ChEMBL_ID>
CHEMBL204112

> <Smiles>
COc1ccccc1-c1ccc2c(c1)C(CSC(C)=O)=CC(C)(C)N2

$$$$
CHEMBL382346
  SciTegic08162514323D

 53 56  0  0  0  0            999 V2000
   -0.6520   -1.6450   -1.4340 S   0  0
   -0.8150   -3.3240   -1.3930 C   0  0
   -1.4650   -1.1470    0.0350 C   0  0
   -0.6990   -4.0940   -2.5680 C   0  0
   -1.0680   -4.0000   -0.1840 C   0  0
   -1.7720    0.3300   -0.0350 C   0  0
   -0.8320   -5.4920   -2.5410 C   0  0
   -1.2050   -5.3990   -0.1440 C   0  0
   -0.6880    1.3510    0.0160 C   0  0
   -3.0570    0.7230   -0.1460 C   0  0
   -1.0860   -6.1470   -1.3260 C   0  0
   -1.0200    2.7360   -0.0570 C   0  0
    0.6700    0.9530    0.1330 C   0  0
   -3.4590    2.1850   -0.2230 C   0  0
   -2.3110    3.1390   -0.1700 N   0  0
    0.0210    3.6990   -0.0060 C   0  0
    1.7030    1.9200    0.1820 C   0  0
   -4.2110    2.4040   -1.5390 C   0  0
   -4.3930    2.4840    0.9530 C   0  0
    1.3710    3.2950    0.1130 C   0  0
    3.0940    1.5060    0.3050 C   0  0
    3.4820    0.5740    1.2910 C   0  0
    4.0570    2.0430   -0.5720 C   0  0
    2.6020    0.0570    2.1250 O   0  0
    4.8320    0.1890    1.3910 C   0  0
    5.4020    1.6520   -0.4670 C   0  0
    3.0660   -0.8580    3.1060 C   0  0
    5.7890    0.7250    0.5140 C   0  0
   -2.3910   -1.7130    0.1470 H   0  0
   -0.8240   -1.3520    0.8930 H   0  0
   -0.5040   -3.6020   -3.5100 H   0  0
   -1.1620   -3.4360    0.7320 H   0  0
   -0.7400   -6.0630   -3.4530 H   0  0
   -1.4000   -5.8990    0.7950 H   0  0
   -3.8340   -0.0270   -0.1820 H   0  0
   -1.1900   -7.2210   -1.2990 H   0  0
    0.9220   -0.0980    0.1860 H   0  0
   -2.5250    4.1150   -0.2230 H   0  0
   -0.2010    4.7580   -0.0570 H   0  0
   -3.5820    2.2010   -2.4040 H   0  0
   -4.5630    3.4320   -1.6150 H   0  0
   -5.0800    1.7480   -1.5980 H   0  0
   -3.8950    2.3400    1.9120 H   0  0
   -5.2640    1.8300    0.9280 H   0  0
   -4.7460    3.5140    0.9120 H   0  0
    2.1430    4.0510    0.1480 H   0  0
    3.7750    2.7560   -1.3340 H   0  0
    5.1350   -0.5240    2.1450 H   0  0
    6.1390    2.0640   -1.1410 H   0  0
    2.2360   -1.1040    3.7680 H   0  0
    3.5370   -1.6970    2.5940 H   0  0
    3.8320   -0.3590    3.7010 H   0  0
    6.8240    0.4260    0.5960 H   0  0
  1  2  1  0
  1  3  1  0
  2  4  2  0
  2  5  1  0
  3  6  1  0
  4  7  1  0
  5  8  2  0
  6  9  1  0
  6 10  2  0
  7 11  2  0
  9 12  2  0
  9 13  1  0
 10 14  1  0
 12 15  1  0
 12 16  1  0
 13 17  2  0
 14 18  1  0
 14 19  1  0
 16 20  2  0
 17 21  1  0
 21 22  2  0
 21 23  1  0
 22 24  1  0
 22 25  1  0
 23 26  2  0
 24 27  1  0
 25 28  2  0
  8 11  1  0
 14 15  1  0
 17 20  1  0
 26 28  1  0
  3 29  1  0
  3 30  1  0
  4 31  1  0
  5 32  1  0
  7 33  1  0
  8 34  1  0
 10 35  1  0
 11 36  1  0
 13 37  1  0
 15 38  1  0
 16 39  1  0
 18 40  1  0
 18 41  1  0
 18 42  1  0
 19 43  1  0
 19 44  1  0
 19 45  1  0
 20 46  1  0
 23 47  1  0
 25 48  1  0
 26 49  1  0
 27 50  1  0
 27 51  1  0
 27 52  1  0
 28 53  1  0
M  END
> <Name>
CHEMBL382346

> <IC50 nM>
804

> <Molecule_ChEMBL_ID>
CHEMBL382346

> <Smiles>
COc1ccccc1-c1ccc2c(c1)C(CSc1ccccc1)=CC(C)(C)N2

$$$$
CHEMBL487728
  SciTegic08162514323D

 38 40  0  0  0  0            999 V2000
    3.8110    3.6350   -1.6900 F   0  0
    3.7790    2.4450   -1.0840 C   0  0
    4.9430    1.9100   -0.5060 C   0  0
    2.5720    1.7230   -1.0250 C   0  0
    4.8960    0.6580    0.1290 C   0  0
    2.5330    0.4690   -0.3890 C   0  0
    6.0840    0.1090    0.7230 C   0  0
    3.6950   -0.0700    0.1890 C   0  0
    1.2830   -0.2750   -0.3320 C   0  0
    7.0450   -0.3340    1.2010 N   0  0
    0.0700    0.3830   -0.0330 C   0  0
    1.2670   -1.6640   -0.5740 C   0  0
   -1.1760   -0.3130    0.0210 C   0  0
    0.0550   -2.3770   -0.5220 C   0  0
   -1.1840   -1.7310   -0.2290 C   0  0
   -2.4180    0.4570    0.3530 C   0  0
   -2.2850   -2.5390   -0.2050 N   0  0
   -3.4100    0.2190   -0.6330 O   0  0
   -2.9080    0.1230    1.7730 C   0  0
   -2.2500    1.9820    0.2680 C   0  0
   -3.6370   -2.2500   -0.2790 C   0  0
   -4.2740   -0.8830   -0.4220 C   0  0
   -4.4080   -3.1820   -0.2320 O   0  0
    5.8570    2.4710   -0.5570 H   0  0
    1.6760    2.1430   -1.4750 H   0  0
    3.6620   -1.0390    0.6820 H   0  0
    0.1130    1.4450    0.1600 H   0  0
    2.1820   -2.1930   -0.8010 H   0  0
    0.0960   -3.4400   -0.7110 H   0  0
   -2.1040   -3.5220   -0.1330 H   0  0
   -3.0530   -0.9490    1.9120 H   0  0
   -3.8600    0.6150    1.9780 H   0  0
   -2.1920    0.4610    2.5200 H   0  0
   -1.8300    2.2700   -0.6970 H   0  0
   -3.2070    2.4840    0.4000 H   0  0
   -1.5740    2.3420    1.0430 H   0  0
   -4.9550   -0.9020   -1.2740 H   0  0
   -4.8950   -0.6800    0.4490 H   0  0
  1  2  1  0
  2  3  2  0
  2  4  1  0
  3  5  1  0
  4  6  2  0
  5  7  1  0
  5  8  2  0
  6  9  1  0
  7 10  3  0
  9 11  2  0
  9 12  1  0
 11 13  1  0
 12 14  2  0
 13 15  2  0
 13 16  1  0
 15 17  1  0
 16 18  1  0
 16 19  1  0
 16 20  1  0
 17 21  1  0
 18 22  1  0
 21 23  2  0
  6  8  1  0
 14 15  1  0
 21 22  1  0
  3 24  1  0
  4 25  1  0
  8 26  1  0
 11 27  1  0
 12 28  1  0
 14 29  1  0
 17 30  1  0
 19 31  1  0
 19 32  1  0
 19 33  1  0
 20 34  1  0
 20 35  1  0
 20 36  1  0
 22 37  1  0
 22 38  1  0
M  END
> <Name>
CHEMBL487728

> <IC50 nM>
3000

> <Molecule_ChEMBL_ID>
CHEMBL487728

> <Smiles>
CC1(C)OCC(=O)Nc2ccc(-c3cc(F)cc(C#N)c3)cc21

$$$$
CHEMBL68083
  SciTegic08162514323D

 51 53  0  0  0  0            999 V2000
   -4.2540    0.6290    2.2540 S   0  0
   -4.6170   -0.7010    2.7070 O   0  0
   -3.0200    1.1170    2.8440 O   0  0
   -4.0290    0.5530    0.6500 N   0  0
   -5.5760    1.7600    2.6620 C   0  0
   -2.7620    0.6230    0.1310 C   0  0
   -1.7680   -0.3200    0.4840 C   0  0
   -2.4550    1.6600   -0.7710 C   0  0
   -0.4710   -0.2150   -0.0720 C   0  0
   -2.0860   -1.4260    1.4430 C   0  0
   -1.1680    1.7600   -1.3200 C   0  0
    0.5180   -1.1100    0.2460 N   0  0
   -0.1800    0.8280   -0.9750 C   0  0
    1.2110   -1.0430    1.5410 C   0  0
    0.8980   -2.1560   -0.7130 C   0  0
    2.3910   -0.1390    1.4840 C   0  0
    1.2290   -1.5840   -2.0450 C   0  0
    2.2360    1.2500    1.6620 C   0  0
    3.6700   -0.6780    1.2520 C   0  0
    2.5350   -1.1410   -2.3180 C   0  0
    0.2320   -1.4860   -3.0350 C   0  0
    1.0310    1.7750    1.8790 F   0  0
    3.3610    2.0920    1.6090 C   0  0
    4.7910    0.1660    1.1990 C   0  0
    2.8460   -0.6000   -3.5780 C   0  0
    0.5450   -0.9450   -4.2930 C   0  0
    4.6370    1.5530    1.3790 C   0  0
    1.8500   -0.5020   -4.5650 C   0  0
    5.7010    2.3510    1.3320 F   0  0
   -4.8160    0.4530    0.0410 H   0  0
   -5.7750    1.8510    3.7290 H   0  0
   -6.4980    1.4320    2.1800 H   0  0
   -5.3360    2.7520    2.2790 H   0  0
   -3.2010    2.3910   -1.0530 H   0  0
   -3.1090   -1.7640    1.2790 H   0  0
   -1.3530   -2.2250    1.3320 H   0  0
   -2.0200   -1.0510    2.4650 H   0  0
   -0.9370    2.5570   -2.0120 H   0  0
    0.8070    0.9260   -1.4100 H   0  0
    1.5330   -2.0450    1.8260 H   0  0
    0.5160   -0.6880    2.3010 H   0  0
    0.0780   -2.8650   -0.8140 H   0  0
    1.7620   -2.6990   -0.3280 H   0  0
    3.7950   -1.7420    1.1130 H   0  0
    3.3050   -1.2150   -1.5630 H   0  0
   -0.7730   -1.8240   -2.8320 H   0  0
    3.2420    3.1580    1.7460 H   0  0
    5.7700   -0.2540    1.0200 H   0  0
    3.8480   -0.2600   -3.7870 H   0  0
   -0.2210   -0.8690   -5.0530 H   0  0
    2.0880   -0.0860   -5.5330 H   0  0
  1  2  2  0
  1  3  2  0
  1  4  1  0
  1  5  1  0
  4  6  1  0
  6  7  2  0
  6  8  1  0
  7  9  1  0
  7 10  1  0
  8 11  2  0
  9 12  1  0
  9 13  2  0
 12 14  1  0
 12 15  1  0
 14 16  1  0
 15 17  1  0
 16 18  2  0
 16 19  1  0
 17 20  2  0
 17 21  1  0
 18 22  1  0
 18 23  1  0
 19 24  2  0
 20 25  1  0
 21 26  2  0
 23 27  2  0
 25 28  2  0
 27 29  1  0
 11 13  1  0
 24 27  1  0
 26 28  1  0
  4 30  1  0
  5 31  1  0
  5 32  1  0
  5 33  1  0
  8 34  1  0
 10 35  1  0
 10 36  1  0
 10 37  1  0
 11 38  1  0
 13 39  1  0
 14 40  1  0
 14 41  1  0
 15 42  1  0
 15 43  1  0
 19 44  1  0
 20 45  1  0
 21 46  1  0
 23 47  1  0
 24 48  1  0
 25 49  1  0
 26 50  1  0
 28 51  1  0
M  END
> <Name>
CHEMBL68083

> <IC50 nM>
15

> <Molecule_ChEMBL_ID>
CHEMBL68083

> <Smiles>
Cc1c(NS(C)(=O)=O)cccc1N(Cc1ccccc1)Cc1ccc(F)cc1F

$$$$
CHEMBL181729
  SciTegic08162514323D

 71 74  0  0  0  0            999 V2000
   -5.2600    4.2660    2.3480 S   0  0
   -6.5510    3.9410    1.7680 O   0  0
   -4.9850    3.5390    3.5760 O   0  0
   -4.1230    3.8480    1.2690 N   0  0
   -5.2030    6.0200    2.6890 C   0  0
   -2.8150    3.7250    1.6660 C   0  0
   -1.8580    3.0840    0.8440 C   0  0
   -2.4300    4.2500    2.9140 C   0  0
   -0.5160    2.9770    1.2870 C   0  0
   -2.2580    2.5230   -0.4840 C   0  0
   -1.1020    4.1410    3.3460 C   0  0
    0.4410    2.3630    0.5180 N   0  0
   -0.1470    3.5080    2.5370 C   0  0
    0.7130    2.8130   -0.8540 C   0  0
    1.2130    1.2360    1.0660 C   0  0
    1.8930    3.7170   -0.9100 C   0  0
    0.5140   -0.0570    0.8570 C   0  0
    1.7380    5.1060   -0.7320 C   0  0
    3.1720    3.1780   -1.1430 C   0  0
   -0.4180   -0.5160    1.8070 C   0  0
    0.7830   -0.8260   -0.2870 C   0  0
    0.5350    5.6310   -0.5160 F   0  0
    2.8630    5.9490   -0.7850 C   0  0
    4.2930    4.0220   -1.1950 C   0  0
   -1.0780   -1.7400    1.6070 C   0  0
    0.1210   -2.0510   -0.4840 C   0  0
    4.1410    5.4080   -1.0160 C   0  0
   -0.8110   -2.5120    0.4630 C   0  0
    5.2030    6.2070   -1.0650 F   0  0
   -1.4320   -3.6600    0.2770 O   0  0
   -0.7440   -4.6560   -0.2420 C   0  0
   -1.3520   -5.5290   -1.1620 C   0  0
    0.6010   -4.8540    0.1190 C   0  0
   -0.6210   -6.5940   -1.7190 C   0  0
    1.3340   -5.9160   -0.4360 C   0  0
    0.7250   -6.7870   -1.3560 C   0  0
    1.4980   -7.9100   -1.9410 C   0  0
    2.6310   -7.4080   -2.8360 C   0  0
    3.4710   -8.5290   -3.3850 C   0  0
    3.2600   -9.6780   -3.0700 O   0  0
    4.4360   -8.1560   -4.2210 O   0  0
   -4.3770    3.6800    0.3180 H   0  0
   -5.8650    6.3420    3.4920 H   0  0
   -5.4730    6.5740    1.7910 H   0  0
   -4.1860    6.3050    2.9630 H   0  0
   -3.1490    4.7420    3.5550 H   0  0
   -1.4920    1.8320   -0.8320 H   0  0
   -3.2400    2.0570   -0.4000 H   0  0
   -2.3340    3.3300   -1.2110 H   0  0
   -0.8110    4.5450    4.3050 H   0  0
    0.8730    3.4340    2.8930 H   0  0
   -0.1620    3.3340   -1.2420 H   0  0
    0.8910    1.9430   -1.4880 H   0  0
    1.3710    1.3970    2.1330 H   0  0
    2.1890    1.2050    0.5840 H   0  0
    3.2970    2.1130   -1.2810 H   0  0
   -0.6310    0.0700    2.6890 H   0  0
    1.4980   -0.4800   -1.0220 H   0  0
    2.7440    7.0140   -0.6490 H   0  0
    5.2730    3.6020   -1.3750 H   0  0
   -1.7930   -2.0880    2.3400 H   0  0
    0.3320   -2.6390   -1.3650 H   0  0
   -2.3850   -5.3850   -1.4450 H   0  0
    1.0740   -4.1860    0.8240 H   0  0
   -1.0960   -7.2580   -2.4240 H   0  0
    2.3670   -6.0590   -0.1520 H   0  0
    0.8260   -8.5630   -2.5020 H   0  0
    1.8890   -8.5390   -1.1430 H   0  0
    3.2440   -6.7600   -2.2090 H   0  0
    2.2380   -6.8050   -3.6540 H   0  0
    5.0120   -8.8280   -4.6100 H   0  0
  1  2  2  0
  1  3  2  0
  1  4  1  0
  1  5  1  0
  4  6  1  0
  6  7  2  0
  6  8  1  0
  7  9  1  0
  7 10  1  0
  8 11  2  0
  9 12  1  0
  9 13  2  0
 12 14  1  0
 12 15  1  0
 14 16  1  0
 15 17  1  0
 16 18  2  0
 16 19  1  0
 17 20  2  0
 17 21  1  0
 18 22  1  0
 18 23  1  0
 19 24  2  0
 20 25  1  0
 21 26  2  0
 23 27  2  0
 25 28  2  0
 27 29  1  0
 28 30  1  0
 30 31  1  0
 31 32  2  0
 31 33  1  0
 32 34  1  0
 33 35  2  0
 34 36  2  0
 36 37  1  0
 37 38  1  0
 38 39  1  0
 39 40  2  0
 39 41  1  0
 11 13  1  0
 24 27  1  0
 26 28  1  0
 35 36  1  0
  4 42  1  0
  5 43  1  0
  5 44  1  0
  5 45  1  0
  8 46  1  0
 10 47  1  0
 10 48  1  0
 10 49  1  0
 11 50  1  0
 13 51  1  0
 14 52  1  0
 14 53  1  0
 15 54  1  0
 15 55  1  0
 19 56  1  0
 20 57  1  0
 21 58  1  0
 23 59  1  0
 24 60  1  0
 25 61  1  0
 26 62  1  0
 32 63  1  0
 33 64  1  0
 34 65  1  0
 35 66  1  0
 37 67  1  0
 37 68  1  0
 38 69  1  0
 38 70  1  0
 41 71  1  0
M  END
> <Name>
CHEMBL181729

> <IC50 nM>
6.9

> <Molecule_ChEMBL_ID>
CHEMBL181729

> <Smiles>
Cc1c(NS(C)(=O)=O)cccc1N(Cc1ccc(Oc2ccc(CCC(=O)O)cc2)cc1)Cc1ccc(F)cc1F

$$$$
CHEMBL185264
  SciTegic08162514323D

 88 91  0  0  0  0            999 V2000
    7.0350   -5.2030   -3.7050 S   0  0
    8.0040   -4.1930   -4.0960 O   0  0
    7.1080   -5.5530   -2.2990 O   0  0
    5.5590   -4.5920   -3.9800 N   0  0
    7.3090   -6.6760   -4.6840 C   0  0
    4.6310   -4.5630   -2.9710 C   0  0
    4.7540   -3.6640   -1.8830 C   0  0
    3.5370   -5.4470   -3.0270 C   0  0
    3.7760   -3.6640   -0.8610 C   0  0
    5.9120   -2.7190   -1.8140 C   0  0
    2.5700   -5.4430   -2.0120 C   0  0
    3.8600   -2.8090    0.2090 N   0  0
    2.6880   -4.5550   -0.9320 C   0  0
    3.7890   -1.3520    0.0200 C   0  0
    4.0260   -3.3440    1.5660 C   0  0
    2.6600   -0.9690   -0.8650 C   0  0
    4.8150   -4.6040    1.5660 C   0  0
    2.9120   -0.4940   -2.1640 C   0  0
    1.3360   -1.0800   -0.4040 C   0  0
    4.1560   -5.8460    1.5660 C   0  0
    6.2190   -4.5530    1.5660 C   0  0
    1.8420   -0.1330   -3.0000 C   0  0
    0.2680   -0.7170   -1.2420 C   0  0
    4.9030   -7.0370    1.5660 C   0  0
    6.9650   -5.7440    1.5660 C   0  0
    0.5180   -0.2420   -2.5430 C   0  0
    6.3090   -6.9860    1.5660 C   0  0
   -0.4860    0.0980   -3.3280 O   0  0
   -1.5230    0.6990   -2.7810 C   0  0
   -2.8240    0.4120   -3.2270 C   0  0
   -1.3340    1.6350   -1.7480 C   0  0
   -3.9300    1.0550   -2.6450 C   0  0
   -2.4390    2.2770   -1.1640 C   0  0
   -3.7400    1.9880   -1.6110 C   0  0
   -4.7770    2.5920   -1.0640 O   0  0
   -4.5330    3.5270   -0.0250 C   0  0
   -5.8610    4.1040    0.4650 C   0  0
   -5.6840    5.1230    1.5900 C   0  0
   -6.9940    5.6950    2.0590 C   0  0
   -8.0410    5.3340    1.5740 O   0  0
   -6.9820    6.6370    3.0490 N   0  0
   -8.2540    7.2070    3.5180 C   0  0
   -8.0180    8.2360    4.6230 C   0  0
   -9.3160    8.8560    5.1410 C   0  0
   -9.0760    9.8620    6.2350 C   0  0
   -7.9570   10.1120    6.6150 O   0  0
  -10.1720   10.4320    6.7290 O   0  0
    5.3260   -4.2360   -4.8850 H   0  0
    8.2870   -7.1330   -4.5390 H   0  0
    7.2050   -6.4340   -5.7400 H   0  0
    6.5530   -7.4220   -4.4360 H   0  0
    3.4260   -6.1410   -3.8500 H   0  0
    5.6450   -1.7790   -2.2970 H   0  0
    6.2150   -2.5900   -0.7750 H   0  0
    6.7580   -3.1430   -2.3570 H   0  0
    1.7340   -6.1250   -2.0610 H   0  0
    1.9300   -4.5700   -0.1600 H   0  0
    4.7270   -1.0000   -0.4140 H   0  0
    3.6720   -0.8690    0.9900 H   0  0
    3.0410   -3.5310    2.0000 H   0  0
    4.5260   -2.6000    2.1880 H   0  0
    3.9280   -0.4060   -2.5250 H   0  0
    1.1350   -1.4430    0.5940 H   0  0
    3.0760   -5.8930    1.5660 H   0  0
    6.7310   -3.6020    1.5660 H   0  0
    2.0410    0.2320   -3.9980 H   0  0
   -0.7480   -0.8030   -0.8850 H   0  0
    4.3970   -7.9920    1.5660 H   0  0
    8.0450   -5.7050    1.5660 H   0  0
    6.8810   -7.9000    1.5660 H   0  0
   -2.9770   -0.3070   -4.0200 H   0  0
   -0.3360    1.8610   -1.4000 H   0  0
   -4.9280    0.8280   -2.9920 H   0  0
   -2.2870    2.9940   -0.3710 H   0  0
   -3.8930    4.3160   -0.4200 H   0  0
   -4.0160    3.0120    0.7830 H   0  0
   -6.5390    3.3070    0.7700 H   0  0
   -6.4220    4.5390   -0.3630 H   0  0
   -5.0590    5.9160    1.1820 H   0  0
   -5.1520    4.6800    2.4320 H   0  0
   -6.1130    6.9320    3.4430 H   0  0
   -8.8980    6.4020    3.8730 H   0  0
   -8.7770    7.6580    2.6760 H   0  0
   -7.3280    9.0120    4.2870 H   0  0
   -7.4470    7.7990    5.4420 H   0  0
   -9.9140    8.0270    5.5220 H   0  0
   -9.8730    9.3200    4.3260 H   0  0
  -10.0880   11.0860    7.4340 H   0  0
  1  2  2  0
  1  3  2  0
  1  4  1  0
  1  5  1  0
  4  6  1  0
  6  7  2  0
  6  8  1  0
  7  9  1  0
  7 10  1  0
  8 11  2  0
  9 12  1  0
  9 13  2  0
 12 14  1  0
 12 15  1  0
 14 16  1  0
 15 17  1  0
 16 18  2  0
 16 19  1  0
 17 20  2  0
 17 21  1  0
 18 22  1  0
 19 23  2  0
 20 24  1  0
 21 25  2  0
 22 26  2  0
 24 27  2  0
 26 28  1  0
 28 29  1  0
 29 30  2  0
 29 31  1  0
 30 32  1  0
 31 33  2  0
 32 34  2  0
 34 35  1  0
 35 36  1  0
 36 37  1  0
 37 38  1  0
 38 39  1  0
 39 40  2  0
 39 41  1  0
 41 42  1  0
 42 43  1  0
 43 44  1  0
 44 45  1  0
 45 46  2  0
 45 47  1  0
 11 13  1  0
 23 26  1  0
 25 27  1  0
 33 34  1  0
  4 48  1  0
  5 49  1  0
  5 50  1  0
  5 51  1  0
  8 52  1  0
 10 53  1  0
 10 54  1  0
 10 55  1  0
 11 56  1  0
 13 57  1  0
 14 58  1  0
 14 59  1  0
 15 60  1  0
 15 61  1  0
 18 62  1  0
 19 63  1  0
 20 64  1  0
 21 65  1  0
 22 66  1  0
 23 67  1  0
 24 68  1  0
 25 69  1  0
 27 70  1  0
 30 71  1  0
 31 72  1  0
 32 73  1  0
 33 74  1  0
 36 75  1  0
 36 76  1  0
 37 77  1  0
 37 78  1  0
 38 79  1  0
 38 80  1  0
 41 81  1  0
 42 82  1  0
 42 83  1  0
 43 84  1  0
 43 85  1  0
 44 86  1  0
 44 87  1  0
 47 88  1  0
M  END
> <Name>
CHEMBL185264

> <IC50 nM>
3.9

> <Molecule_ChEMBL_ID>
CHEMBL185264

> <Smiles>
Cc1c(NS(C)(=O)=O)cccc1N(Cc1ccccc1)Cc1ccc(Oc2ccc(OCCCC(=O)NCCCC(=O)O)cc2)cc1

$$$$
CHEMBL186254
  SciTegic08162514323D

 74 77  0  0  1  0            999 V2000
    5.3560   -2.0920    3.8710 O   0  0
    4.1920   -1.7790    3.7720 C   0  0
    3.1560   -2.7870    3.5020 C   0  0
    3.7370   -0.3510    3.9260 C   0  0
    1.9380   -2.4550    3.0310 C   0  0
    2.6210    0.0370    2.9420 C   0  0
    1.5940   -1.0530    2.6580 C   0  0
    0.8990   -3.5450    2.8810 C   0  0
    0.4010   -0.7620    2.0720 C   0  0
   -0.5190   -2.9730    2.8360 C   0  0
   -0.6150   -1.8570    1.7720 C   0  0  3  0  0  0
   -0.0230    0.6450    1.6840 C   0  0  2  0  0  0
   -2.0350   -1.2990    1.4750 C   0  0  3  0  0  0
   -1.3070    0.9940    2.4550 C   0  0
   -0.1950    0.7760    0.1660 C   0  0
   -2.4450   -0.0350    2.2640 C   0  0  2  0  0  0
   -3.2030   -2.2500    1.7680 C   0  0
    0.9280    0.0960   -0.6150 C   0  0
   -2.8890   -0.6780    3.5900 C   0  0  2  0  0  0
   -3.6310    0.6060    1.5220 C   0  0
   -3.5720   -2.0040    3.2310 C   0  0
    2.1680    0.9790   -0.7540 C   0  0
   -3.7580    0.1620    4.3260 O   0  0
    1.9610    2.1370   -1.7300 C   0  0
    1.7270    1.6640   -3.1660 C   0  0
    1.6800    2.8190   -4.1660 C   0  0
    1.3630    2.3540   -5.5880 C   0  0
   -0.0960    1.9300   -5.7600 C   0  0
   -0.4280    1.5220   -7.1950 C   0  0
   -1.8810    1.0760   -7.3610 C   0  0
    3.3890   -3.8240    3.6950 H   0  0
    3.3750   -0.2230    4.9470 H   0  0
    4.5860    0.3260    3.8150 H   0  0
    2.1350    0.9180    3.3610 H   0  0
    3.0670    0.3420    1.9940 H   0  0
    0.9770   -4.2560    3.7050 H   0  0
    1.1020   -4.1010    1.9650 H   0  0
   -1.2070   -3.7890    2.6210 H   0  0
   -0.7870   -2.5920    3.8200 H   0  0
   -0.2950   -2.3280    0.8420 H   0  0
    0.7270    1.3810    1.9570 H   0  0
   -2.0550   -1.0680    0.4180 H   0  0
   -1.6370    1.9920    2.1640 H   0  0
   -1.0570    1.0840    3.5140 H   0  0
   -1.1680    0.3930   -0.1440 H   0  0
   -0.2870    1.8220   -0.1210 H   0  0
   -4.0470   -1.9900    1.1410 H   0  0
   -2.9820   -3.2830    1.5510 H   0  0
    1.1860   -0.8630   -0.1640 H   0  0
    0.5740   -0.2280   -1.5940 H   0  0
   -2.0330   -0.8690    4.2210 H   0  0
   -3.8940    1.5760    1.9400 H   0  0
   -4.5120   -0.0330    1.5800 H   0  0
   -3.3920    0.7500    0.4690 H   0  0
   -3.2050   -2.7990    3.8630 H   0  0
   -4.6460   -1.9760    3.3440 H   0  0
    2.4880    1.3500    0.2210 H   0  0
    3.0350    0.3850   -1.0410 H   0  0
   -3.2480    0.9470    4.5820 H   0  0
    1.1470    2.7790   -1.3980 H   0  0
    2.7990    2.8340   -1.6850 H   0  0
    2.4810    0.9320   -3.4570 H   0  0
    0.8220    1.0610   -3.2280 H   0  0
    0.9690    3.5800   -3.8440 H   0  0
    2.6100    3.3870   -4.1440 H   0  0
    1.6270    3.1230   -6.3120 H   0  0
    2.0350    1.5510   -5.8910 H   0  0
   -0.3490    1.1310   -5.0620 H   0  0
   -0.7690    2.7170   -5.4180 H   0  0
   -0.1890    2.3260   -7.8890 H   0  0
    0.2540    0.7460   -7.5410 H   0  0
   -2.0840    0.8030   -8.3970 H   0  0
   -2.1000    0.2250   -6.7190 H   0  0
   -2.5640    1.8810   -7.0900 H   0  0
  1  2  2  0
  2  3  1  0
  2  4  1  0
  3  5  2  0
  4  6  1  0
  5  7  1  0
  5  8  1  0
  7  9  2  0
  8 10  1  0
  9 11  1  0
  9 12  1  0
 11 13  1  0
 12 14  1  0
 12 15  1  0
 13 16  1  0
 13 17  1  0
 15 18  1  0
 16 19  1  0
 16 20  1  0
 17 21  1  0
 18 22  1  0
 19 23  1  0
 22 24  1  0
 24 25  1  0
 25 26  1  0
 26 27  1  0
 27 28  1  0
 28 29  1  0
 29 30  1  0
  6  7  1  0
 10 11  1  0
 14 16  1  0
 19 21  1  0
  3 31  1  0
  4 32  1  0
  4 33  1  0
  6 34  1  0
  6 35  1  0
  8 36  1  0
  8 37  1  0
 10 38  1  0
 10 39  1  0
 11 40  1  0
 12 41  1  0
 13 42  1  0
 14 43  1  0
 14 44  1  0
 15 45  1  0
 15 46  1  0
 17 47  1  0
 17 48  1  0
 18 49  1  0
 18 50  1  0
 19 51  1  0
 20 52  1  0
 20 53  1  0
 20 54  1  0
 21 55  1  0
 21 56  1  0
 22 57  1  0
 22 58  1  0
 23 59  1  0
 24 60  1  0
 24 61  1  0
 25 62  1  0
 25 63  1  0
 26 64  1  0
 26 65  1  0
 27 66  1  0
 27 67  1  0
 28 68  1  0
 28 69  1  0
 29 70  1  0
 29 71  1  0
 30 72  1  0
 30 73  1  0
 30 74  1  0
M  END
> <Name>
CHEMBL186254

> <IC50 nM>
1812

> <Molecule_ChEMBL_ID>
CHEMBL186254

> <Smiles>
CCCCCCCCCC[C@H]1C[C@@]2(C)C(CC[C@@H]2O)C2CCC3=CC(=O)CCC3=C21

$$$$
CHEMBL185125
  SciTegic08162514323D

 75 78  0  0  0  0            999 V2000
    2.7440   -1.0180   -5.5040 S   0  0
    1.8180   -0.1230   -4.8300 O   0  0
    3.3850   -0.4140   -6.6580 O   0  0
    3.9080   -1.4010   -4.4450 N   0  0
    1.8550   -2.4770   -6.0330 C   0  0
    3.9860   -0.7420   -3.2420 C   0  0
    3.0120   -0.9380   -2.2320 C   0  0
    5.0590    0.1400   -3.0210 C   0  0
    3.1290   -0.2420   -1.0060 C   0  0
    1.8690   -1.8750   -2.4610 C   0  0
    5.1680    0.8280   -1.8030 C   0  0
    2.2050   -0.4040   -0.0040 N   0  0
    4.2070    0.6380   -0.7990 C   0  0
    0.7690   -0.2230   -0.2620 C   0  0
    2.6460   -0.7660    1.3500 C   0  0
    0.1640    0.7560    0.6800 C   0  0
    3.4360   -2.0260    1.3500 C   0  0
   -0.6910    0.3120    1.7030 C   0  0
    0.4470    2.1270    0.5470 C   0  0
    2.7770   -3.2700    1.3500 C   0  0
    4.8420   -1.9770    1.3500 C   0  0
   -1.2620    1.2380    2.5940 C   0  0
   -0.1250    3.0510    1.4380 C   0  0
    3.5250   -4.4590    1.3500 C   0  0
    5.5880   -3.1680    1.3500 C   0  0
   -0.9810    2.6110    2.4630 C   0  0
    4.9300   -4.4080    1.3500 C   0  0
   -1.5180    3.4780    3.2970 O   0  0
   -2.7520    3.2640    3.7050 C   0  0
   -3.7050    2.7240    2.8220 C   0  0
   -3.1210    3.5680    5.0270 C   0  0
   -5.0240    2.4940    3.2560 C   0  0
   -4.4360    3.3400    5.4630 C   0  0
   -5.9140    1.9900    2.4260 O   0  0
   -5.3870    2.8030    4.5780 C   0  0
   -5.5120    1.7400    1.0860 C   0  0
   -6.6950    1.1890    0.2910 C   0  0
   -6.3650    0.9710   -1.1860 C   0  0
   -5.3240   -0.0980   -1.3870 C   0  0
   -4.2790    0.1500   -1.9450 O   0  0
   -5.6450   -1.2970   -0.9140 O   0  0
    4.5700   -2.1170   -4.6660 H   0  0
    1.0700   -2.2810   -6.7660 H   0  0
    1.3930   -2.9530   -5.1700 H   0  0
    2.5530   -3.1880   -6.4730 H   0  0
    5.8130    0.3030   -3.7790 H   0  0
    2.1480   -2.6140   -3.2130 H   0  0
    1.5760   -2.3280   -1.5140 H   0  0
    1.0140   -1.3190   -2.8440 H   0  0
    5.9940    1.5060   -1.6390 H   0  0
    4.3110    1.1800    0.1330 H   0  0
    0.2620   -1.1840   -0.1600 H   0  0
    0.6290    0.1230   -1.2850 H   0  0
    1.7730   -0.8850    1.9920 H   0  0
    3.2520    0.0430    1.7580 H   0  0
   -0.9120   -0.7400    1.8130 H   0  0
    1.1030    2.4740   -0.2380 H   0  0
    1.6990   -3.3150    1.3500 H   0  0
    5.3540   -1.0260    1.3500 H   0  0
   -1.9180    0.8920    3.3790 H   0  0
    0.0940    4.1030    1.3320 H   0  0
    3.0200   -5.4140    1.3500 H   0  0
    6.6660   -3.1270    1.3500 H   0  0
    5.5040   -5.3240    1.3500 H   0  0
   -3.4240    2.4880    1.8070 H   0  0
   -2.3930    3.9820    5.7090 H   0  0
   -4.7190    3.5760    6.4790 H   0  0
   -6.3970    2.6270    4.9160 H   0  0
   -4.6920    1.0230    1.1040 H   0  0
   -5.1620    2.6800    0.6540 H   0  0
   -7.5670    1.8380    0.4000 H   0  0
   -7.0690    0.2710    0.7440 H   0  0
   -5.9940    1.9260   -1.5550 H   0  0
   -7.2660    0.7220   -1.7480 H   0  0
   -5.0200   -2.0280   -1.0120 H   0  0
  1  2  2  0
  1  3  2  0
  1  4  1  0
  1  5  1  0
  4  6  1  0
  6  7  2  0
  6  8  1  0
  7  9  1  0
  7 10  1  0
  8 11  2  0
  9 12  1  0
  9 13  2  0
 12 14  1  0
 12 15  1  0
 14 16  1  0
 15 17  1  0
 16 18  2  0
 16 19  1  0
 17 20  2  0
 17 21  1  0
 18 22  1  0
 19 23  2  0
 20 24  1  0
 21 25  2  0
 22 26  2  0
 24 27  2  0
 26 28  1  0
 28 29  1  0
 29 30  2  0
 29 31  1  0
 30 32  1  0
 31 33  2  0
 32 34  1  0
 32 35  2  0
 34 36  1  0
 36 37  1  0
 37 38  1  0
 38 39  1  0
 39 40  2  0
 39 41  1  0
 11 13  1  0
 23 26  1  0
 25 27  1  0
 33 35  1  0
  4 42  1  0
  5 43  1  0
  5 44  1  0
  5 45  1  0
  8 46  1  0
 10 47  1  0
 10 48  1  0
 10 49  1  0
 11 50  1  0
 13 51  1  0
 14 52  1  0
 14 53  1  0
 15 54  1  0
 15 55  1  0
 18 56  1  0
 19 57  1  0
 20 58  1  0
 21 59  1  0
 22 60  1  0
 23 61  1  0
 24 62  1  0
 25 63  1  0
 27 64  1  0
 30 65  1  0
 31 66  1  0
 33 67  1  0
 35 68  1  0
 36 69  1  0
 36 70  1  0
 37 71  1  0
 37 72  1  0
 38 73  1  0
 38 74  1  0
 41 75  1  0
M  END
> <Name>
CHEMBL185125

> <IC50 nM>
11

> <Molecule_ChEMBL_ID>
CHEMBL185125

> <Smiles>
Cc1c(NS(C)(=O)=O)cccc1N(Cc1ccccc1)Cc1ccc(Oc2cccc(OCCCC(=O)O)c2)cc1

$$$$
CHEMBL184508
  SciTegic08162514323D

 54 56  0  0  1  0            999 V2000
    3.1660   -2.8560    2.6250 S   0  0
    2.6470   -2.4180    3.9080 O   0  0
    2.4920   -4.0310    2.1060 O   0  0
    2.9320   -1.6510    1.5680 N   0  0
    4.9080   -3.2210    2.8030 C   0  0
    1.6560   -1.2480    1.2580 C   0  0
    1.4180   -0.2360    0.2970 C   0  0
    0.5720   -1.8610    1.9160 C   0  0
    0.0880    0.1500    0.0060 C   0  0
    2.5640    0.4180   -0.4060 C   0  0
   -0.7420   -1.4730    1.6250 C   0  0
   -0.1840    1.1270   -0.9200 N   0  0
   -0.9860   -0.4710    0.6720 C   0  0
   -0.6910    0.7830   -2.2560 C   0  0  2  0  0  0
    0.0330    2.5410   -0.5800 C   0  0
   -1.3890   -0.5290   -2.2560 C   0  0
    0.4280    0.8280   -3.2950 C   0  0
   -1.0080    3.0470    0.3520 C   0  0
   -2.7930   -0.5820   -2.2560 C   0  0
   -0.6430   -1.7210   -2.2560 C   0  0
   -0.7380    3.1310    1.7310 C   0  0
   -2.2660    3.4390   -0.1420 C   0  0
   -3.4510   -1.8240   -2.2560 C   0  0
   -1.3010   -2.9630   -2.2560 C   0  0
   -1.7230    3.6090    2.6110 C   0  0
   -3.2500    3.9180    0.7400 C   0  0
   -2.7050   -3.0140   -2.2560 C   0  0
   -2.9790    4.0020    2.1170 C   0  0
    3.7150   -1.2010    1.1410 H   0  0
    5.1290   -4.0260    3.5040 H   0  0
    5.4340   -2.3280    3.1430 H   0  0
    5.3220   -3.5000    1.8340 H   0  0
    0.7360   -2.6350    2.6540 H   0  0
    2.2680    1.1330   -1.1760 H   0  0
    3.1840   -0.3440   -0.8790 H   0  0
    3.1820    0.9470    0.3200 H   0  0
   -1.5700   -1.9450    2.1330 H   0  0
   -2.0080   -0.1880    0.4630 H   0  0
   -1.4920    1.4750   -2.5210 H   0  0
    0.0210    3.1350   -1.4940 H   0  0
    1.0160    2.6540   -0.1230 H   0  0
    1.2400    0.1560   -3.0160 H   0  0
    0.0530    0.5410   -4.2770 H   0  0
    0.8400    1.8340   -3.3750 H   0  0
   -3.3730    0.3300   -2.2560 H   0  0
    0.4380   -1.6900   -2.2560 H   0  0
    0.2250    2.8320    2.1170 H   0  0
   -2.4810    3.3770   -1.1990 H   0  0
   -4.5310   -1.8630   -2.2560 H   0  0
   -0.7270   -3.8790   -2.2560 H   0  0
   -1.5160    3.6740    3.6700 H   0  0
   -4.2150    4.2190    0.3610 H   0  0
   -3.2110   -3.9690   -2.2560 H   0  0
   -3.7340    4.3690    2.7950 H   0  0
  1  2  2  0
  1  3  2  0
  1  4  1  0
  1  5  1  0
  4  6  1  0
  6  7  2  0
  6  8  1  0
  7  9  1  0
  7 10  1  0
  8 11  2  0
  9 12  1  0
  9 13  2  0
 12 14  1  0
 12 15  1  0
 14 16  1  0
 14 17  1  0
 15 18  1  0
 16 19  2  0
 16 20  1  0
 18 21  2  0
 18 22  1  0
 19 23  1  0
 20 24  2  0
 21 25  1  0
 22 26  2  0
 23 27  2  0
 25 28  2  0
 11 13  1  0
 24 27  1  0
 26 28  1  0
  4 29  1  0
  5 30  1  0
  5 31  1  0
  5 32  1  0
  8 33  1  0
 10 34  1  0
 10 35  1  0
 10 36  1  0
 11 37  1  0
 13 38  1  0
 14 39  1  0
 15 40  1  0
 15 41  1  0
 17 42  1  0
 17 43  1  0
 17 44  1  0
 19 45  1  0
 20 46  1  0
 21 47  1  0
 22 48  1  0
 23 49  1  0
 24 50  1  0
 25 51  1  0
 26 52  1  0
 27 53  1  0
 28 54  1  0
M  END
> <Name>
CHEMBL184508

> <IC50 nM>
71

> <Molecule_ChEMBL_ID>
CHEMBL184508

> <Smiles>
Cc1c(NS(C)(=O)=O)cccc1N(Cc1ccccc1)C(C)c1ccccc1

$$$$
CHEMBL181759
  SciTegic08162514323D

 83 86  0  0  1  0            999 V2000
    4.3730   -5.8460   -4.4000 S   0  0
    5.6660   -5.9750   -5.0490 O   0  0
    3.9860   -7.0290   -3.6540 O   0  0
    4.4770   -4.6190   -3.3480 N   0  0
    3.1310   -5.5160   -5.6440 C   0  0
    3.5430   -4.4880   -2.3500 C   0  0
    3.7640   -3.6370   -1.2400 C   0  0
    2.3440   -5.2230   -2.4430 C   0  0
    2.7770   -3.5310   -0.2320 C   0  0
    5.0350   -2.8550   -1.1350 C   0  0
    1.3690   -5.1130   -1.4390 C   0  0
    2.9550   -2.7170    0.8580 N   0  0
    1.5840   -4.2700   -0.3380 C   0  0
    3.0610   -1.2580    0.7030 C   0  0
    3.0450   -3.2990    2.2030 C   0  0
    1.9710   -0.7190   -0.1500 C   0  0
    3.8340   -4.5590    2.2030 C   0  0
    2.2320   -0.3590   -1.4840 C   0  0
    0.6760   -0.5640    0.3770 C   0  0
    3.1780   -5.8010    2.2030 C   0  0
    5.2400   -4.5080    2.2030 C   0  0
    1.1990    0.1500   -2.2890 C   0  0
   -0.3550   -0.0530   -0.4300 C   0  0
    3.9240   -6.9920    2.2030 C   0  0
    5.9860   -5.6990    2.2030 C   0  0
   -0.0960    0.3050   -1.7660 C   0  0
    5.3280   -6.9410    2.2030 C   0  0
   -1.0640    0.7850   -2.5210 O   0  0
   -1.9710    1.5550   -1.9530 C   0  0
   -3.3090    1.5000   -2.3770 C   0  0
   -1.6020    2.4340   -0.9200 C   0  0
   -4.2750    2.3220   -1.7690 C   0  0
   -2.5680    3.2540   -0.3120 C   0  0
   -3.9080    3.2010   -0.7360 C   0  0
   -4.8150    3.9710   -0.1680 O   0  0
   -4.3930    4.8420    0.8710 C   0  0
   -5.5920    5.6370    1.3870 C   0  0  1  0  0  0
   -6.4880    4.7360    2.0000 O   0  0
   -5.1970    6.6950    2.4180 C   0  0
   -6.2130    7.8360    2.5120 C   0  0  1  0  0  0
   -7.3830    7.3360    3.1190 O   0  0
   -5.7030    9.0100    3.3460 C   0  0
   -6.6170   10.2050    3.2740 C   0  0
   -7.5530   10.2270    2.5080 O   0  0
   -6.3150   11.1990    4.1020 O   0  0
    5.2210   -3.9550   -3.4240 H   0  0
    2.9750   -6.3340   -6.3500 H   0  0
    3.4160   -4.6350   -6.2190 H   0  0
    2.1780   -5.3070   -5.1600 H   0  0
    2.1580   -5.8770   -3.2810 H   0  0
    4.9770   -1.9790   -1.7810 H   0  0
    5.2190   -2.6000   -0.0920 H   0  0
    5.8690   -3.4670   -1.4800 H   0  0
    0.4530   -5.6780   -1.5160 H   0  0
    0.8180   -4.2010    0.4220 H   0  0
    4.0250   -1.0140    0.2580 H   0  0
    3.0200   -0.7890    1.6860 H   0  0
    2.0410   -3.5000    2.5740 H   0  0
    3.5120   -2.5780    2.8770 H   0  0
    3.2250   -0.4770   -1.8940 H   0  0
    0.4690   -0.8380    1.4020 H   0  0
    2.0980   -5.8480    2.2030 H   0  0
    5.7520   -3.5570    2.2030 H   0  0
    1.4040    0.4240   -3.3140 H   0  0
   -1.3480    0.0630   -0.0210 H   0  0
    3.4180   -7.9470    2.2030 H   0  0
    7.0660   -5.6600    2.2030 H   0  0
    5.9020   -7.8580    2.2030 H   0  0
   -3.5980    0.8280   -3.1700 H   0  0
   -0.5740    2.4790   -0.5880 H   0  0
   -5.3030    2.2750   -2.1010 H   0  0
   -2.2790    3.9280    0.4810 H   0  0
   -3.6310    5.5100    0.4690 H   0  0
   -3.9590    4.2360    1.6680 H   0  0
   -6.0980    6.0960    0.5390 H   0  0
   -6.9010    4.2190    1.2910 H   0  0
   -4.1990    7.0820    2.2110 H   0  0
   -5.0390    6.2400    3.3970 H   0  0
   -6.4650    8.1600    1.5020 H   0  0
   -7.9280    6.9490    2.4160 H   0  0
   -4.7270    9.2680    2.9400 H   0  0
   -5.5650    8.7130    4.3870 H   0  0
   -6.8630   11.9960    4.1060 H   0  0
  1  2  2  0
  1  3  2  0
  1  4  1  0
  1  5  1  0
  4  6  1  0
  6  7  2  0
  6  8  1  0
  7  9  1  0
  7 10  1  0
  8 11  2  0
  9 12  1  0
  9 13  2  0
 12 14  1  0
 12 15  1  0
 14 16  1  0
 15 17  1  0
 16 18  2  0
 16 19  1  0
 17 20  2  0
 17 21  1  0
 18 22  1  0
 19 23  2  0
 20 24  1  0
 21 25  2  0
 22 26  2  0
 24 27  2  0
 26 28  1  0
 28 29  1  0
 29 30  2  0
 29 31  1  0
 30 32  1  0
 31 33  2  0
 32 34  2  0
 34 35  1  0
 35 36  1  0
 36 37  1  0
 37 38  1  0
 37 39  1  0
 39 40  1  0
 40 41  1  0
 40 42  1  0
 42 43  1  0
 43 44  2  0
 43 45  1  0
 11 13  1  0
 23 26  1  0
 25 27  1  0
 33 34  1  0
  4 46  1  0
  5 47  1  0
  5 48  1  0
  5 49  1  0
  8 50  1  0
 10 51  1  0
 10 52  1  0
 10 53  1  0
 11 54  1  0
 13 55  1  0
 14 56  1  0
 14 57  1  0
 15 58  1  0
 15 59  1  0
 18 60  1  0
 19 61  1  0
 20 62  1  0
 21 63  1  0
 22 64  1  0
 23 65  1  0
 24 66  1  0
 25 67  1  0
 27 68  1  0
 30 69  1  0
 31 70  1  0
 32 71  1  0
 33 72  1  0
 36 73  1  0
 36 74  1  0
 37 75  1  0
 38 76  1  0
 39 77  1  0
 39 78  1  0
 40 79  1  0
 41 80  1  0
 42 81  1  0
 42 82  1  0
 45 83  1  0
M  END
> <Name>
CHEMBL181759

> <IC50 nM>
2.1

> <Molecule_ChEMBL_ID>
CHEMBL181759

> <Smiles>
Cc1c(NS(C)(=O)=O)cccc1N(Cc1ccccc1)Cc1ccc(Oc2ccc(OC[C@@H](O)C[C@@H](O)CC(=O)O)cc2)cc1

$$$$
CHEMBL182883
  SciTegic08162514323D

 84 88  0  0  1  0            999 V2000
   -5.6560   -3.9630   -2.6270 O   0  0
   -4.5610   -3.4770   -2.4790 C   0  0
   -3.7170   -3.8730   -1.3440 C   0  0
   -4.0450   -2.4510   -3.4570 C   0  0
   -2.5410   -3.2850   -1.0430 C   0  0
   -2.8480   -1.6040   -2.9860 C   0  0
   -1.9880   -2.1700   -1.8550 C   0  0
   -1.7620   -3.7930    0.1500 C   0  0
   -0.7600   -1.6580   -1.5960 C   0  0
   -0.2620   -3.6290   -0.0530 C   0  0
   -0.1600   -0.4880   -2.3810 C   0  0  1  0  0  0
    0.1230   -2.1950   -0.4610 C   0  0  1  0  0  0
   -0.3910    0.7990   -1.6910 C   0  0
    1.3130   -0.7330   -2.7660 C   0  0
    1.5880   -2.2950   -0.8960 C   0  0  1  0  0  0
   -1.1270    0.8340   -0.4940 C   0  0
    0.1270    1.9900   -2.2320 C   0  0
    2.2050   -1.0630   -1.5640 C   0  0  1  0  0  0
    2.6800   -2.6270    0.1350 C   0  0
   -1.3460    2.0590    0.1620 C   0  0
   -0.0920    3.2150   -1.5780 C   0  0
    3.6560   -1.5700   -1.8400 C   0  0  2  0  0  0
    2.2320    0.1110   -0.5620 C   0  0
    4.0000   -2.0860   -0.4320 C   0  0
   -0.8280    3.2520   -0.3790 C   0  0
    4.5160   -0.5220   -2.2210 O   0  0
    3.7380   -2.6970   -2.7910 C   0  0
   -1.0410    4.4430    0.2600 N   0  0
    3.8010   -3.6410   -3.5100 C   0  0
   -1.6090    4.4860    1.6150 C   0  0
   -0.6990    5.7070   -0.4080 C   0  0
    3.8930   -4.8360   -4.3480 C   0  0
   -0.6110    3.9550    2.6450 C   0  0  1  0  0  0
    0.4160    4.9060    2.7970 O   0  0
   -1.2480    3.7170    4.0160 C   0  0
   -0.5430    2.6170    4.8110 C   0  0  1  0  0  0
    0.7300    3.0900    5.1820 O   0  0
   -1.3010    2.2300    6.0800 C   0  0
   -0.7210    1.0100    6.7440 C   0  0
   -1.1330   -0.0960    6.4830 O   0  0
    0.2540    1.2500    7.6170 O   0  0
   -4.0740   -4.6920   -0.7360 H   0  0
   -3.7600   -2.9810   -4.3710 H   0  0
   -4.8630   -1.7910   -3.7460 H   0  0
   -2.2360   -1.4690   -3.8790 H   0  0
   -3.2010   -0.6150   -2.6950 H   0  0
   -2.0840   -3.2340    1.0290 H   0  0
   -1.9960   -4.8400    0.3480 H   0  0
    0.2680   -3.9430    0.8420 H   0  0
    0.0430   -4.3260   -0.8360 H   0  0
   -0.6600   -0.3630   -3.3480 H   0  0
    0.0250   -1.5330    0.4020 H   0  0
    1.7030    0.1430   -3.2750 H   0  0
    1.3630   -1.5100   -3.5060 H   0  0
    1.5800   -3.0800   -1.6410 H   0  0
   -1.5250   -0.0780   -0.0740 H   0  0
    0.6930    1.9670   -3.1520 H   0  0
    2.7310   -3.6900    0.2850 H   0  0
    2.4920   -2.1740    1.0960 H   0  0
   -1.9140    2.0660    1.0820 H   0  0
    0.3140    4.1190   -2.0100 H   0  0
    2.9940   -0.0250    0.2030 H   0  0
    1.2700    0.2130   -0.0620 H   0  0
    2.4410    1.0510   -1.0760 H   0  0
    4.3730   -1.2810    0.1910 H   0  0
    4.7810   -2.8340   -0.4430 H   0  0
    5.4220   -0.8560   -2.1520 H   0  0
   -2.5310    3.9040    1.6350 H   0  0
   -1.8980    5.5100    1.8520 H   0  0
   -1.0160    6.6050    0.1210 H   0  0
   -1.1580    5.7250   -1.3960 H   0  0
    0.3810    5.7620   -0.5430 H   0  0
    4.9240   -5.1640   -4.4390 H   0  0
    3.4820   -4.6700   -5.3380 H   0  0
    3.3260   -5.6490   -3.8870 H   0  0
   -0.1700    3.0350    2.2620 H   0  0
    0.0020    5.7290    3.1040 H   0  0
   -2.3110    3.4960    3.9120 H   0  0
   -1.2870    4.6430    4.5880 H   0  0
   -0.4080    1.7500    4.1640 H   0  0
    1.3300    2.9100    4.4410 H   0  0
   -2.3260    2.0310    5.7720 H   0  0
   -1.3200    3.0610    6.7850 H   0  0
    0.5180    2.1620    7.7910 H   0  0
  1  2  2  0
  2  3  1  0
  2  4  1  0
  3  5  2  0
  4  6  1  0
  5  7  1  0
  5  8  1  0
  7  9  2  0
  8 10  1  0
  9 11  1  0
  9 12  1  0
 11 13  1  0
 11 14  1  0
 12 15  1  0
 13 16  2  0
 13 17  1  0
 14 18  1  0
 15 19  1  0
 16 20  1  0
 17 21  2  0
 18 22  1  0
 18 23  1  0
 19 24  1  0
 20 25  2  0
 22 26  1  0
 22 27  1  0
 25 28  1  0
 27 29  3  0
 28 30  1  0
 28 31  1  0
 29 32  1  0
 30 33  1  0
 33 34  1  0
 33 35  1  0
 35 36  1  0
 36 37  1  0
 36 38  1  0
 38 39  1  0
 39 40  2  0
 39 41  1  0
  6  7  1  0
 12 10  1  0
 15 18  1  0
 21 25  1  0
 22 24  1  0
  3 42  1  0
  4 43  1  0
  4 44  1  0
  6 45  1  0
  6 46  1  0
  8 47  1  0
  8 48  1  0
 10 49  1  0
 10 50  1  0
 11 51  1  0
 12 52  1  0
 14 53  1  0
 14 54  1  0
 15 55  1  0
 16 56  1  0
 17 57  1  0
 19 58  1  0
 19 59  1  0
 20 60  1  0
 21 61  1  0
 23 62  1  0
 23 63  1  0
 23 64  1  0
 24 65  1  0
 24 66  1  0
 26 67  1  0
 30 68  1  0
 30 69  1  0
 31 70  1  0
 31 71  1  0
 31 72  1  0
 32 73  1  0
 32 74  1  0
 32 75  1  0
 33 76  1  0
 34 77  1  0
 35 78  1  0
 35 79  1  0
 36 80  1  0
 37 81  1  0
 38 82  1  0
 38 83  1  0
 41 84  1  0
M  END
> <Name>
CHEMBL182883

> <IC50 nM>
6.8

> <Molecule_ChEMBL_ID>
CHEMBL182883

> <Smiles>
CC#C[C@]1(O)CC[C@H]2[C@@H]3CCC4=CC(=O)CCC4=C3[C@@H](c3ccc(N(C)C[C@@H](O)C[C@@H](O)CC(=O)O)cc3)C[C@@]21C

$$$$
CHEMBL302366
  SciTegic08162514323D

 72 77  0  0  1  0            999 V2000
    2.9860    2.3110   -1.1740 S   0  0
    4.4490    3.3570   -0.9240 C   0  0  3  0  0  0
    3.7950    0.6870   -1.1250 C   0  0
    4.8300    3.3400    0.5270 C   0  0
    4.1330    4.8320   -1.1470 C   0  0
    2.7810   -0.3870   -1.4160 C   0  0
    5.4000    2.3980    1.0290 O   0  0
    4.4880    4.4470    1.1740 O   0  0
    3.7210    5.2380    0.2710 C   0  0
    2.7680   -0.9570   -2.4810 O   0  0
    1.7810   -0.7320   -0.3340 C   0  0  2  0  0  0
    2.0780   -2.0350    0.1430 O   0  0
    0.2950   -0.5960   -0.7400 C   0  0  2  0  0  0
    1.9080    0.1150    0.9470 C   0  0  2  0  0  0
    2.8790   -1.9610    1.3010 C   0  0
   -0.3970   -0.4380    0.6250 C   0  0  3  0  0  0
   -0.3610   -1.7850   -1.4670 C   0  0
    0.1700    0.7010   -1.5570 C   0  0
    2.3690   -0.8050    1.9220 O   0  0
    0.4980    0.5960    1.3140 C   0  0
    2.6480   -3.1780    2.1820 C   0  0
    4.3420   -1.7400    0.9200 C   0  0
   -1.8890   -0.0940    0.4710 C   0  0  3  0  0  0
   -1.8930   -1.6090   -1.6270 C   0  0  1  0  0  0
   -2.6170   -1.2400   -0.2930 C   0  0  1  0  0  0
   -2.5060    0.1520    1.8610 C   0  0
   -2.1390   -0.6450   -2.6330 O   0  0
   -2.5060   -2.3770    0.4840 F   0  0
   -4.1520   -0.9450   -0.4140 C   0  0  2  0  0  0
   -4.0180    0.4120    1.7850 C   0  0  1  0  0  0
   -4.7170   -0.6740    0.9840 C   0  0
   -4.8710   -2.0740   -1.1470 C   0  0
   -4.4260    0.3280   -1.2290 C   0  0
   -4.5040    0.5180    3.0660 F   0  0
   -5.7720   -1.3610    1.4800 C   0  0
   -5.9140   -2.7460   -0.6210 C   0  0
   -6.4280   -2.4240    0.7130 C   0  0
   -7.3730   -3.0250    1.1700 O   0  0
    5.2600    3.0160   -1.5490 H   0  0
    4.5920    0.6560   -1.8690 H   0  0
    4.2310    0.5290   -0.1390 H   0  0
    5.0200    5.3710   -1.4490 H   0  0
    3.3570    5.0000   -1.8810 H   0  0
    2.6740    5.0180    0.4380 H   0  0
    3.8830    6.2870    0.4790 H   0  0
    2.6170    0.9280    0.8630 H   0  0
   -0.3200   -1.3630    1.1800 H   0  0
   -0.1890   -2.7010   -0.9000 H   0  0
    0.1150   -1.9470   -2.4340 H   0  0
   -0.8650    1.0270   -1.6450 H   0  0
    0.5640    0.5620   -2.5630 H   0  0
    0.7340    1.5080   -1.0860 H   0  0
    0.3280    0.6480    2.3790 H   0  0
    0.3200    1.5840    0.9140 H   0  0
    1.5960   -3.2990    2.4390 H   0  0
    3.2110   -3.0940    3.1110 H   0  0
    2.9750   -4.0880    1.6760 H   0  0
    4.7090   -0.7990    1.3280 H   0  0
    4.9630   -2.5570    1.2890 H   0  0
    4.4550   -1.6990   -0.1640 H   0  0
   -1.9860    0.8280   -0.1020 H   0  0
   -2.2970   -2.5430   -2.0220 H   0  0
   -2.0200    1.0020    2.3420 H   0  0
   -2.3160   -0.7090    2.5040 H   0  0
   -2.7150   -1.0590   -3.2930 H   0  0
   -4.1880    1.3670    1.2870 H   0  0
   -4.5390   -2.3570   -2.1350 H   0  0
   -5.4180    0.7320   -1.0270 H   0  0
   -4.3590    0.1230   -2.2970 H   0  0
   -3.6950    1.1020   -0.9900 H   0  0
   -6.1560   -1.1430    2.4650 H   0  0
   -6.3770   -3.5350   -1.1950 H   0  0
  1  2  1  0
  1  3  1  0
  2  4  1  0
  2  5  1  0
  3  6  1  0
  4  7  2  0
  4  8  1  0
  5  9  1  0
  6 10  2  0
 11  6  1  0
 11 12  1  0
 11 13  1  0
 11 14  1  0
 12 15  1  0
 13 16  1  0
 13 17  1  0
 13 18  1  0
 14 19  1  0
 14 20  1  0
 15 21  1  0
 15 22  1  0
 16 23  1  0
 17 24  1  0
 23 25  1  0
 23 26  1  0
 24 27  1  0
 25 28  1  0
 25 29  1  0
 26 30  1  0
 29 31  1  0
 29 32  1  0
 29 33  1  0
 30 34  1  0
 31 35  2  0
 32 36  2  0
 35 37  1  0
 37 38  2  0
  8  9  1  0
 15 19  1  0
 16 20  1  0
 24 25  1  0
 30 31  1  0
 36 37  1  0
  2 39  1  0
  3 40  1  0
  3 41  1  0
  5 42  1  0
  5 43  1  0
  9 44  1  0
  9 45  1  0
 14 46  1  0
 16 47  1  0
 17 48  1  0
 17 49  1  0
 18 50  1  0
 18 51  1  0
 18 52  1  0
 20 53  1  0
 20 54  1  0
 21 55  1  0
 21 56  1  0
 21 57  1  0
 22 58  1  0
 22 59  1  0
 22 60  1  0
 23 61  1  0
 24 62  1  0
 26 63  1  0
 26 64  1  0
 27 65  1  0
 30 66  1  0
 32 67  1  0
 33 68  1  0
 33 69  1  0
 33 70  1  0
 35 71  1  0
 36 72  1  0
M  END
> <Name>
CHEMBL302366

> <IC50 nM>
6.6

> <Molecule_ChEMBL_ID>
CHEMBL302366

> <Smiles>
CC1(C)O[C@@H]2CC3C4C[C@H](F)C5=CC(=O)C=C[C@]5(C)[C@@]4(F)[C@@H](O)C[C@]3(C)[C@]2(C(=O)CSC2CCOC2=O)O1

$$$$
CHEMBL3261177
  SciTegic08162514323D

 42 44  0  0  1  0            999 V2000
   -0.7220   -5.9630    1.3440 Cl  0  0
    0.3500   -4.7950    2.0000 C   0  0
    0.4140   -3.4940    1.4610 C   0  0
    1.1700   -5.1440    3.0900 C   0  0
   -0.5960   -3.0600    0.1210 S   0  0
    1.3030   -2.5470    2.0120 C   0  0
    2.0530   -4.1990    3.6410 C   0  0
   -1.8200   -3.8360    0.2030 O   0  0
    0.1490   -3.2910   -1.1050 O   0  0
   -1.0860   -1.3900    0.0780 N   0  0
    1.3990   -0.9570    1.3670 Cl  0  0
    2.1190   -2.9020    3.1000 C   0  0
    3.0490   -4.6270    4.9690 Cl  0  0
   -1.8160   -0.9260   -1.0880 C   0  0  2  0  0  0
   -1.8940    0.6020   -1.0960 C   0  0
   -3.1930   -1.5880   -1.1560 C   0  0
   -0.5820    1.1430   -1.1000 O   0  0
   -0.4530    2.4790   -1.1130 C   0  0
    0.8280    3.0940   -1.1290 C   0  0
   -1.6150    3.2830   -1.1150 C   0  0
    0.9440    4.5240   -1.1430 C   0  0
    2.0140    2.3070   -1.1290 C   0  0
   -1.5080    4.6920   -1.1290 C   0  0
    2.1860    5.1270   -1.1540 N   0  0
   -0.2360    5.3110   -1.1430 C   0  0
    3.2760    2.9470   -1.1430 C   0  0
    3.3340    4.3620   -1.1540 C   0  0
    1.1230   -6.1410    3.5040 H   0  0
   -1.6440   -1.1760    0.9160 H   0  0
    2.8010   -2.1780    3.5230 H   0  0
   -1.1780   -1.2830   -1.8950 H   0  0
   -2.4120    0.9650   -0.2070 H   0  0
   -2.4140    0.9570   -1.9860 H   0  0
   -3.0980   -2.6540   -1.3540 H   0  0
   -3.7360   -1.4450   -0.2210 H   0  0
   -3.7910   -1.1520   -1.9570 H   0  0
   -2.5920    2.8220   -1.1040 H   0  0
    1.9710    1.2270   -1.1190 H   0  0
   -2.4000    5.3010   -1.1290 H   0  0
   -0.1800    6.3890   -1.1520 H   0  0
    4.1860    2.3640   -1.1430 H   0  0
    4.2970    4.8520   -1.1660 H   0  0
  1  2  1  0
  2  3  2  0
  2  4  1  0
  3  5  1  0
  3  6  1  0
  4  7  2  0
  5  8  2  0
  5  9  2  0
  5 10  1  0
  6 11  1  0
  6 12  2  0
  7 13  1  0
 10 14  1  0
 14 15  1  0
 14 16  1  0
 15 17  1  0
 17 18  1  0
 18 19  2  0
 18 20  1  0
 19 21  1  0
 19 22  1  0
 20 23  2  0
 21 24  1  0
 21 25  2  0
 22 26  2  0
 24 27  2  0
  7 12  1  0
 23 25  1  0
 26 27  1  0
  4 28  1  0
 10 29  1  0
 12 30  1  0
 14 31  1  0
 15 32  1  0
 15 33  1  0
 16 34  1  0
 16 35  1  0
 16 36  1  0
 20 37  1  0
 22 38  1  0
 23 39  1  0
 25 40  1  0
 26 41  1  0
 27 42  1  0
M  END
> <Name>
CHEMBL3261177

> <IC50 nM>
2400

> <Molecule_ChEMBL_ID>
CHEMBL3261177

> <Smiles>
C[C@@H](COc1cccc2ncccc12)NS(=O)(=O)c1c(Cl)cc(Cl)cc1Cl

$$$$
CHEMBL3261425
  SciTegic08162514323D

 66 70  0  0  1  0            999 V2000
    4.3440   -1.6330    0.1090 S   0  0
    4.7150   -1.0820   -1.1820 O   0  0
    5.2600   -2.6560    0.5820 O   0  0
    4.4670   -0.3180    1.2440 N   0  0
    2.7850   -2.3260   -0.0270 C   0  0
    3.7540    0.9100    0.9450 C   0  0  2  0  0  0
    1.9940   -2.7770    1.0430 C   0  0
    2.0900   -2.5390   -1.2320 C   0  0
    2.2700    0.6230    0.7050 C   0  0
    4.4100    1.6390   -0.2290 C   0  0
    0.8670   -3.2400    0.4650 N   0  0
    2.2720   -2.7810    2.5310 C   0  0
    0.9140   -3.1040   -0.8690 N   0  0
    2.5060   -2.2290   -2.6560 C   0  0
    1.4670    1.8460    0.8530 N   0  0
   -0.1620   -3.5120   -1.7930 C   0  0
    0.1330    1.8010    0.6700 C   0  0
   -1.5140   -2.8810   -1.4360 C   0  0
   -0.4200   -5.0250   -1.8090 C   0  0
   -0.5680    3.0410    0.8570 C   0  0
   -0.5700    0.6210    0.3140 C   0  0
   -2.5200   -3.9320   -1.8910 C   0  0
   -1.8650   -5.1950   -1.3540 C   0  0
   -1.9430    3.0310    0.6780 C   0  0
    0.0140    4.2600    1.2070 C   0  0
   -1.9770    0.6620    0.1430 C   0  0
   -2.2870    4.3220    0.9240 N   0  0
   -2.6820    1.8770    0.3240 C   0  0
   -1.1390    5.0140    1.2270 N   0  0
   -3.5350    4.8580    0.8830 C   0  0
   -3.7560    6.1130    0.2770 C   0  0
   -4.6250    4.1640    1.4410 C   0  0
   -5.0040    6.6660    0.2250 N   0  0
   -5.9040    4.7440    1.3810 C   0  0
   -6.0660    6.0000    0.7640 C   0  0
   -7.2750    6.5510    0.7050 F   0  0
    4.1760   -0.6430    2.1780 H   0  0
    3.8930    1.4670    1.8710 H   0  0
    1.9060   -0.1310    1.4020 H   0  0
    2.1130    0.2110   -0.2910 H   0  0
    5.4960    1.6130   -0.1370 H   0  0
    4.1210    1.1840   -1.1760 H   0  0
    4.1020    2.6860   -0.2540 H   0  0
    1.5900   -3.4000    3.1130 H   0  0
    2.2050   -1.7620    2.9140 H   0  0
    3.2850   -3.1410    2.7110 H   0  0
    3.5800   -2.1040   -2.7910 H   0  0
    2.0200   -1.3090   -2.9840 H   0  0
    2.1780   -3.0310   -3.3150 H   0  0
    1.9100    2.7110    1.0900 H   0  0
    0.1190   -3.2010   -2.7910 H   0  0
   -1.6640   -1.9320   -1.9280 H   0  0
   -1.6170   -2.7210   -0.3690 H   0  0
   -0.3120   -5.4000   -2.8180 H   0  0
    0.2580   -5.5980   -1.1900 H   0  0
   -0.0450   -0.3140    0.1740 H   0  0
   -3.5060   -3.7660   -1.4820 H   0  0
   -2.5960   -3.9590   -2.9690 H   0  0
   -1.9260   -5.2270   -0.2730 H   0  0
   -2.3180   -6.0960   -1.7400 H   0  0
    1.0290    4.5780    1.4080 H   0  0
   -2.5120   -0.2360   -0.1290 H   0  0
   -3.7520    1.9160    0.1930 H   0  0
   -2.9340    6.6620   -0.1580 H   0  0
   -4.4980    3.1990    1.9160 H   0  0
   -6.7520    4.2290    1.8050 H   0  0
  1  2  2  0
  1  3  2  0
  1  4  1  0
  1  5  1  0
  4  6  1  0
  5  7  1  0
  5  8  2  0
  6  9  1  0
  6 10  1  0
  7 11  2  0
  7 12  1  0
  8 13  1  0
  8 14  1  0
  9 15  1  0
 13 16  1  0
 15 17  1  0
 16 18  1  0
 16 19  1  0
 17 20  2  0
 17 21  1  0
 18 22  1  0
 19 23  1  0
 20 24  1  0
 20 25  1  0
 21 26  2  0
 24 27  1  0
 24 28  2  0
 25 29  2  0
 27 30  1  0
 30 31  2  0
 30 32  1  0
 31 33  1  0
 32 34  2  0
 33 35  2  0
 35 36  1  0
 11 13  1  0
 22 23  1  0
 26 28  1  0
 27 29  1  0
 34 35  1  0
  4 37  1  0
  6 38  1  0
  9 39  1  0
  9 40  1  0
 10 41  1  0
 10 42  1  0
 10 43  1  0
 12 44  1  0
 12 45  1  0
 12 46  1  0
 14 47  1  0
 14 48  1  0
 14 49  1  0
 15 50  1  0
 16 51  1  0
 18 52  1  0
 18 53  1  0
 19 54  1  0
 19 55  1  0
 21 56  1  0
 22 57  1  0
 22 58  1  0
 23 59  1  0
 23 60  1  0
 25 61  1  0
 26 62  1  0
 28 63  1  0
 31 64  1  0
 32 65  1  0
 34 66  1  0
M  END
> <Name>
CHEMBL3261425

> <IC50 nM>
3

> <Molecule_ChEMBL_ID>
CHEMBL3261425

> <Smiles>
Cc1nn(C2CCCC2)c(C)c1S(=O)(=O)N[C@@H](C)CNc1cccc2c1cnn2-c1ccc(F)nc1

$$$$
CHEMBL520169
  SciTegic08162514323D

 47 51  0  0  0  0            999 V2000
    1.9730    3.2150    0.4800 S   0  0
    1.5820    1.9220   -0.5490 C   0  0
    1.1700    4.3480   -0.5000 C   0  0
    0.8300    2.3480   -1.6540 C   0  0
    2.0330    0.5060   -0.2310 C   0  0
    0.5960    3.7380   -1.6250 C   0  0
    3.1840    0.6370    0.6110 O   0  0
    0.9260   -0.3420    0.3570 C   0  0
    2.4650   -0.0740   -1.5690 C   0  0
    3.5880   -0.4860    1.3870 C   0  0
    1.1070   -1.7580    0.5660 C   0  0
   -0.3300    0.2400    0.7030 C   0  0
    4.0680    0.0780   -2.1100 S   0  0
    1.6680   -0.7680   -2.4920 C   0  0
    3.5180   -1.8180    0.6620 C   0  0
    2.2970   -2.3750    0.3380 N   0  0
    0.0200   -2.5590    1.0210 C   0  0
   -1.3650   -0.5900    1.1760 C   0  0
    3.7480   -0.7580   -3.5550 C   0  0
    2.4040   -1.1600   -3.6290 C   0  0
    4.5370   -2.4080    0.3850 O   0  0
   -1.2290   -1.9790    1.3320 C   0  0
   -2.6660    0.0310    1.5190 C   0  0
   -3.8830   -0.3300    1.0390 N   0  0
   -2.7050    1.1010    2.4260 C   0  0
   -4.7500    0.5330    1.6520 C   0  0
   -4.1970   -1.4080    0.0740 C   0  0
   -4.0630    1.4300    2.5140 C   0  0
   -6.1760    0.6030    1.5100 C   0  0
   -7.3300    0.6600    1.3940 N   0  0
    1.1170    5.4040   -0.2720 H   0  0
    0.4750    1.6890   -2.4380 H   0  0
    0.0370    4.2710   -2.3830 H   0  0
    4.6060   -0.2970    1.7260 H   0  0
    2.9690   -0.5220    2.2830 H   0  0
   -0.5140    1.2990    0.6070 H   0  0
    0.6150   -0.9790   -2.3520 H   0  0
    2.2930   -3.2870   -0.0740 H   0  0
    0.1350   -3.6270    1.1440 H   0  0
    4.4960   -0.9510   -4.3130 H   0  0
    1.9840   -1.7050   -4.4630 H   0  0
   -2.0470   -2.5900    1.6820 H   0  0
   -1.8830    1.5740    2.9470 H   0  0
   -5.2580   -1.3790   -0.1720 H   0  0
   -3.5570   -1.3090   -0.8030 H   0  0
   -3.9880   -2.3770    0.5310 H   0  0
   -4.5000    2.2090    3.1170 H   0  0
  1  2  1  0
  1  3  1  0
  2  4  2  0
  2  5  1  0
  3  6  2  0
  5  7  1  0
  5  8  1  0
  5  9  1  0
  7 10  1  0
  8 11  2  0
  8 12  1  0
  9 13  1  0
  9 14  2  0
 10 15  1  0
 11 16  1  0
 11 17  1  0
 12 18  2  0
 13 19  1  0
 14 20  1  0
 15 21  2  0
 17 22  2  0
 18 23  1  0
 23 24  1  0
 23 25  2  0
 24 26  1  0
 24 27  1  0
 25 28  1  0
 26 29  1  0
 29 30  3  0
  4  6  1  0
 15 16  1  0
 18 22  1  0
 19 20  2  0
 26 28  2  0
  3 31  1  0
  4 32  1  0
  6 33  1  0
 10 34  1  0
 10 35  1  0
 12 36  1  0
 14 37  1  0
 16 38  1  0
 17 39  1  0
 19 40  1  0
 20 41  1  0
 22 42  1  0
 25 43  1  0
 27 44  1  0
 27 45  1  0
 27 46  1  0
 28 47  1  0
M  END
> <Name>
CHEMBL520169

> <IC50 nM>
3000

> <Molecule_ChEMBL_ID>
CHEMBL520169

> <Smiles>
Cn1c(C#N)ccc1-c1ccc2c(c1)C(c1cccs1)(c1cccs1)OCC(=O)N2

$$$$
CHEMBL483246
  SciTegic08162514323D

 47 51  0  0  0  0            999 V2000
    4.2480   -2.7090    0.0860 O   0  0
    3.2290   -2.1190    0.3630 C   0  0
    2.0080   -2.6760    0.0390 N   0  0
    3.2990   -0.7870    1.0880 C   0  0
    0.8180   -2.0610    0.2680 C   0  0
    2.8950    0.3360    0.3130 O   0  0
    0.6390   -0.6430    0.0610 C   0  0
   -0.2670   -2.8610    0.7250 C   0  0
    1.7440    0.2030   -0.5270 C   0  0
   -0.6190   -0.0630    0.4040 C   0  0
   -1.5160   -2.2790    1.0350 C   0  0
    1.2930    1.6190   -0.8460 C   0  0
    2.1760   -0.3750   -1.8650 C   0  0
   -1.6540   -0.8910    0.8770 C   0  0
    1.4220    2.6350    0.0570 O   0  0
    0.7150    2.0530   -2.0450 C   0  0
    1.3300   -1.1250   -2.6290 O   0  0
    3.4320   -0.2250   -2.4650 C   0  0
   -2.9550   -0.2700    1.2230 C   0  0
    0.9140    3.7250   -0.5880 C   0  0
    0.4690    3.4140   -1.8770 C   0  0
    2.0700   -1.4510   -3.7290 C   0  0
    3.3630   -0.9220   -3.6700 C   0  0
   -3.1480    0.7790    2.0640 N   0  0
   -4.1350   -0.7710    0.6540 C   0  0
   -4.5040    0.9690    2.0470 C   0  0
   -2.1270    1.5370    2.8220 C   0  0
   -5.1440    0.0350    1.1910 C   0  0
   -5.2660    1.9530    2.7620 C   0  0
   -5.8830    2.7500    3.3400 N   0  0
    2.0040   -3.5900   -0.3710 H   0  0
    4.3170   -0.5980    1.4300 H   0  0
    2.6800   -0.8220    1.9860 H   0  0
   -0.1540   -3.9300    0.8480 H   0  0
   -0.8030    0.9980    0.3090 H   0  0
   -2.3360   -2.8930    1.3830 H   0  0
    0.5020    1.4530   -2.9200 H   0  0
    4.2790    0.3200   -2.0740 H   0  0
    0.8650    4.7110   -0.1450 H   0  0
    0.0270    4.0900   -2.5960 H   0  0
    1.6900   -2.0530   -4.5450 H   0  0
    4.1470   -1.0290   -4.4060 H   0  0
   -4.2540   -1.5940   -0.0390 H   0  0
   -2.6210    2.2090    3.5230 H   0  0
   -1.4470    0.8400    3.3130 H   0  0
   -1.5410    2.1450    2.1350 H   0  0
   -6.2030   -0.0390    0.9920 H   0  0
  1  2  2  0
  2  3  1  0
  2  4  1  0
  3  5  1  0
  4  6  1  0
  5  7  2  0
  5  8  1  0
  6  9  1  0
  7 10  1  0
  8 11  2  0
  9 12  1  0
  9 13  1  0
 10 14  2  0
 12 15  1  0
 12 16  2  0
 13 17  1  0
 13 18  2  0
 14 19  1  0
 15 20  1  0
 16 21  1  0
 17 22  1  0
 18 23  1  0
 19 24  1  0
 19 25  2  0
 24 26  1  0
 24 27  1  0
 25 28  1  0
 26 29  1  0
 29 30  3  0
  7  9  1  0
 11 14  1  0
 20 21  2  0
 22 23  2  0
 26 28  2  0
  3 31  1  0
  4 32  1  0
  4 33  1  0
  8 34  1  0
 10 35  1  0
 11 36  1  0
 16 37  1  0
 18 38  1  0
 20 39  1  0
 21 40  1  0
 22 41  1  0
 23 42  1  0
 25 43  1  0
 27 44  1  0
 27 45  1  0
 27 46  1  0
 28 47  1  0
M  END
> <Name>
CHEMBL483246

> <IC50 nM>
3000

> <Molecule_ChEMBL_ID>
CHEMBL483246

> <Smiles>
Cn1c(C#N)ccc1-c1ccc2c(c1)C(c1ccco1)(c1ccco1)OCC(=O)N2

$$$$
CHEMBL1085107
  SciTegic08162514323D

 40 42  0  0  1  0            999 V2000
    0.9860    0.0410   -0.8240 S   0  0
    0.7850    0.6450    0.7270 C   0  0
    2.6110    0.6540   -1.0190 C   0  0  2  0  0  0
    1.8030    1.2760    1.1820 N   0  0
   -0.3200    0.5270    1.5200 N   0  0
    2.8960    1.3480    0.2970 C   0  0
    2.6420    1.6250   -2.1930 C   0  0
    3.5620   -0.5100   -1.2730 C   0  0
   -1.5020   -0.1990    1.0100 C   0  0  2  0  0  0
    3.9300    1.9060    0.5800 O   0  0
    1.6850    2.7850   -1.9200 C   0  0
    2.3100    0.8750   -3.4840 C   0  0
   -2.7030   -0.1460    1.9710 C   0  0  2  0  0  0
   -1.2780   -1.7130    0.8810 C   0  0
   -2.4690   -1.3300    2.9020 C   0  0
   -3.9730   -0.5760    1.2310 C   0  0
   -2.4080   -2.3010    1.7320 C   0  0  1  0  0  0
   -3.7620   -2.0800    1.0510 C   0  0
   -0.3240    0.9320    2.4340 H   0  0
    3.6760    1.9730   -2.2050 H   0  0
    3.7090   -1.1130   -0.3790 H   0  0
    4.5370   -0.1460   -1.5940 H   0  0
    3.1740   -1.1600   -2.0570 H   0  0
   -1.7640    0.2330    0.0550 H   0  0
    1.6420    3.4830   -2.7560 H   0  0
    1.9960    3.3420   -1.0370 H   0  0
    0.6740    2.4160   -1.7420 H   0  0
    2.1680    1.5740   -4.3090 H   0  0
    3.1070    0.1800   -3.7420 H   0  0
    1.3900    0.3030   -3.3710 H   0  0
   -2.8210    0.8030    2.4750 H   0  0
   -1.3340   -2.0470   -0.1440 H   0  0
   -0.3190   -2.0270    1.2700 H   0  0
   -3.2910   -1.5190    3.5800 H   0  0
   -1.5470   -1.2670    3.4650 H   0  0
   -4.8520   -0.3810    1.8280 H   0  0
   -4.0940   -0.0600    0.2870 H   0  0
   -2.2370   -3.3300    2.0140 H   0  0
   -3.7480   -2.3750    0.0120 H   0  0
   -4.5390   -2.6390    1.5490 H   0  0
  1  2  1  0
  1  3  1  0
  2  4  2  0
  2  5  1  0
  3  6  1  0
  3  7  1  0
  3  8  1  0
  9  5  1  0
  6 10  2  0
  7 11  1  0
  7 12  1  0
  9 13  1  0
  9 14  1  0
 13 15  1  0
 13 16  1  0
 17 14  1  0
 16 18  1  0
  4  6  1  0
 15 17  1  0
 17 18  1  0
  5 19  1  0
  7 20  1  0
  8 21  1  0
  8 22  1  0
  8 23  1  0
  9 24  1  0
 11 25  1  0
 11 26  1  0
 11 27  1  0
 12 28  1  0
 12 29  1  0
 12 30  1  0
 13 31  1  0
 14 32  1  0
 14 33  1  0
 15 34  1  0
 15 35  1  0
 16 36  1  0
 16 37  1  0
 17 38  1  0
 18 39  1  0
 18 40  1  0
M  END
> <Name>
CHEMBL1085107

> <IC50 nM>
10000

> <Molecule_ChEMBL_ID>
CHEMBL1085107

> <Smiles>
CC(C)[C@]1(C)SC(N[C@H]2C[C@@H]3CC[C@H]2C3)=NC1=O

$$$$
CHEMBL1083487
  SciTegic08162514323D

 56 60  0  0  0  0            999 V2000
   -3.3650   -2.9670    0.3160 S   0  0
   -3.1990   -3.9140    1.4020 O   0  0
   -3.6490   -3.6000   -0.9610 O   0  0
   -4.6290   -2.0220    0.6820 N   0  0
   -1.9050   -2.0610    0.1580 C   0  0
   -5.7970   -2.5820    1.1250 C   0  0
   -4.5220   -0.5630    0.5370 C   0  0
   -1.4940   -1.6070   -1.1060 C   0  0
   -1.1290   -1.7790    1.2950 C   0  0
   -6.0300   -3.9610    0.9530 C   0  0
   -6.7700   -1.7810    1.7560 C   0  0
   -0.3050   -0.8690   -1.2400 C   0  0
    0.0600   -1.0410    1.1660 C   0  0
   -7.2290   -4.5330    1.4080 C   0  0
   -7.9690   -2.3570    2.2110 C   0  0
    0.4760   -0.5840   -0.1000 C   0  0
    0.1030   -0.4020   -2.5960 C   0  0
   -8.1980   -3.7340    2.0370 C   0  0
    1.7130    0.1780   -0.2090 C   0  0
    1.4080   -0.7580   -2.8260 F   0  0
   -0.0160    0.9610   -2.6640 F   0  0
   -0.7030   -0.9810   -3.5410 F   0  0
    2.9670   -0.4940   -0.2400 C   0  0
    1.6720    1.5980   -0.2870 C   0  0
    4.1640    0.2600   -0.3480 C   0  0
    2.8690    2.3480   -0.3950 C   0  0
    4.0920    1.6390   -0.4220 C   0  0
    5.4160   -0.3280   -0.3830 C   0  0
    5.3980    1.9920   -0.5120 N   0  0
    6.1480    0.8360   -0.4880 N   0  0
    5.8960    3.2520   -0.6090 C   0  0
    5.3690    4.2850    0.1930 C   0  0
    6.9390    3.5330   -1.5120 C   0  0
    5.8850    5.5880    0.0920 C   0  0
    7.4550    4.8360   -1.6110 C   0  0
    6.9280    5.8650   -0.8110 C   0  0
    7.4160    7.1000   -0.9060 F   0  0
   -5.4400   -0.1780    0.0920 H   0  0
   -4.2910   -0.1210    1.5080 H   0  0
   -3.6990   -0.3280   -0.1390 H   0  0
   -2.0980   -1.8300   -1.9750 H   0  0
   -1.4460   -2.1270    2.2680 H   0  0
   -5.2970   -4.5920    0.4710 H   0  0
   -6.6120   -0.7210    1.8980 H   0  0
    0.6460   -0.8320    2.0510 H   0  0
   -7.4070   -5.5920    1.2750 H   0  0
   -8.7130   -1.7440    2.6930 H   0  0
   -9.1190   -4.1760    2.3870 H   0  0
    3.0080   -1.5740   -0.1820 H   0  0
    0.7260    2.1230   -0.2680 H   0  0
    2.8460    3.4260   -0.4550 H   0  0
    5.7670   -1.3520   -0.3460 H   0  0
    4.5680    4.0920    0.8930 H   0  0
    7.3590    2.7560   -2.1370 H   0  0
    5.4780    6.3750    0.7090 H   0  0
    8.2560    5.0450   -2.3070 H   0  0
  1  2  2  0
  1  3  2  0
  1  4  1  0
  1  5  1  0
  4  6  1  0
  4  7  1  0
  5  8  2  0
  5  9  1  0
  6 10  2  0
  6 11  1  0
  8 12  1  0
  9 13  2  0
 10 14  1  0
 11 15  2  0
 12 16  2  0
 12 17  1  0
 14 18  2  0
 16 19  1  0
 17 20  1  0
 17 21  1  0
 17 22  1  0
 19 23  2  0
 19 24  1  0
 23 25  1  0
 24 26  2  0
 25 27  2  0
 25 28  1  0
 27 29  1  0
 28 30  2  0
 29 31  1  0
 31 32  2  0
 31 33  1  0
 32 34  1  0
 33 35  2  0
 34 36  2  0
 36 37  1  0
 13 16  1  0
 15 18  1  0
 26 27  1  0
 29 30  1  0
 35 36  1  0
  7 38  1  0
  7 39  1  0
  7 40  1  0
  8 41  1  0
  9 42  1  0
 10 43  1  0
 11 44  1  0
 13 45  1  0
 14 46  1  0
 15 47  1  0
 18 48  1  0
 23 49  1  0
 24 50  1  0
 26 51  1  0
 28 52  1  0
 32 53  1  0
 33 54  1  0
 34 55  1  0
 35 56  1  0
M  END
> <Name>
CHEMBL1083487

> <IC50 nM>
398.11

> <Molecule_ChEMBL_ID>
CHEMBL1083487

> <Smiles>
CN(c1ccccc1)S(=O)(=O)c1ccc(-c2ccc3c(cnn3-c3ccc(F)cc3)c2)c(C(F)(F)F)c1

$$$$
CHEMBL1911649
  SciTegic08162514323D

 53 55  0  0  1  0            999 V2000
   -5.5080    3.0060   -2.4300 F   0  0
   -5.0390    2.1560   -1.5170 C   0  0
   -3.7990    1.5250   -1.7150 C   0  0
   -5.7850    1.8870   -0.3590 C   0  0
   -3.3030    0.6270   -0.7540 C   0  0
   -5.2910    0.9900    0.6040 C   0  0
   -4.0510    0.3570    0.4100 C   0  0
   -1.9880   -0.0330   -0.9730 C   0  0
   -3.5980   -0.4820    1.3180 O   0  0
   -1.2330    0.9040   -0.0310 C   0  0
   -1.5290    0.0940   -2.4260 C   0  0
   -1.9980   -1.4820   -0.4800 C   0  0
   -4.3540   -0.6500    2.5080 C   0  0
    0.2850    0.7580   -0.1440 C   0  0  1  0  0  0
    0.6890    1.3150   -1.3750 O   0  0
    0.8890    1.5960    0.9830 C   0  0
    0.7400   -0.7010   -0.1070 C   0  0
    0.9670    0.8380    2.1230 F   0  0
    0.0980    2.6900    1.2150 F   0  0
    2.1460    2.0080    0.6210 F   0  0
    2.2440   -0.8030    0.0800 C   0  0
    2.8530   -1.1050    1.3240 N   0  0
    3.2580   -0.6250   -0.8810 C   0  0
    4.2230   -1.1110    1.1110 C   0  0
    4.4200   -0.8200   -0.2170 C   0  0
    5.3070   -1.3500    1.9860 C   0  0
    5.7190   -0.7460   -0.7750 C   0  0
    6.6230   -1.2830    1.4630 C   0  0
    6.8220   -0.9820    0.0860 C   0  0
    8.1560   -0.9180   -0.4470 C   0  0
    9.2310   -0.8630   -0.8750 N   0  0
   -3.2250    1.7320   -2.6070 H   0  0
   -6.7400    2.3690   -0.2030 H   0  0
   -5.8690    0.7850    1.4920 H   0  0
   -1.5590    0.7600    1.0000 H   0  0
   -1.5330    1.9400   -0.1930 H   0  0
   -2.3010   -0.2320   -3.1250 H   0  0
   -0.6410   -0.5120   -2.6030 H   0  0
   -1.2810    1.1290   -2.6620 H   0  0
   -2.9670   -1.9570   -0.6350 H   0  0
   -1.7700   -1.5290    0.5840 H   0  0
   -1.2500   -2.0720   -1.0100 H   0  0
   -3.8600   -1.4020    3.1230 H   0  0
   -4.4940    0.3280    2.9650 H   0  0
   -5.3360   -1.0350    2.2360 H   0  0
    0.9820    0.5820   -1.9370 H   0  0
    0.4530   -1.2190   -1.0210 H   0  0
    0.2380   -1.2420    0.6950 H   0  0
    2.3810   -1.2790    2.1800 H   0  0
    3.1210   -0.3850   -1.9280 H   0  0
    5.1390   -1.5760    3.0280 H   0  0
    5.8570   -0.5160   -1.8240 H   0  0
    7.4610   -1.4630    2.1170 H   0  0
  1  2  1  0
  2  3  2  0
  2  4  1  0
  3  5  1  0
  4  6  2  0
  5  7  2  0
  5  8  1  0
  7  9  1  0
  8 10  1  0
  8 11  1  0
  8 12  1  0
  9 13  1  0
 10 14  1  0
 14 15  1  0
 14 16  1  0
 14 17  1  0
 16 18  1  0
 16 19  1  0
 16 20  1  0
 17 21  1  0
 21 22  1  0
 21 23  2  0
 22 24  1  0
 23 25  1  0
 24 26  1  0
 25 27  1  0
 26 28  2  0
 27 29  2  0
 29 30  1  0
 30 31  3  0
  6  7  1  0
 24 25  2  0
 28 29  1  0
  3 32  1  0
  4 33  1  0
  6 34  1  0
 10 35  1  0
 10 36  1  0
 11 37  1  0
 11 38  1  0
 11 39  1  0
 12 40  1  0
 12 41  1  0
 12 42  1  0
 13 43  1  0
 13 44  1  0
 13 45  1  0
 15 46  1  0
 17 47  1  0
 17 48  1  0
 22 49  1  0
 23 50  1  0
 26 51  1  0
 27 52  1  0
 28 53  1  0
M  END
> <Name>
CHEMBL1911649

> <IC50 nM>
8

> <Molecule_ChEMBL_ID>
CHEMBL1911649

> <Smiles>
COc1ccc(F)cc1C(C)(C)CC(O)(Cc1cc2cc(C#N)ccc2[nH]1)C(F)(F)F

$$$$
CHEMBL422444
  SciTegic08162514323D

 55 59  0  0  0  0            999 V2000
    1.3520    3.5640    0.9020 S   0  0
    2.2010    2.9770   -0.4340 C   0  0
    2.4960    4.6740    1.6250 C   0  0
    1.8930    1.7270   -1.0140 C   0  0
    3.2460    3.7300   -1.0040 C   0  0
    2.6080    1.2480   -2.1270 C   0  0
    0.7910    0.8930   -0.4410 C   0  0
    3.9650    3.2600   -2.1150 C   0  0
    3.6450    2.0160   -2.6780 C   0  0
    0.8630   -0.4590   -0.3710 C   0  0
    2.0330   -1.0060   -0.7320 O   0  0
   -0.2730   -1.2870    0.1600 C   0  0
    2.3560   -2.2720   -0.3810 C   0  0
   -1.6480   -0.8750    0.1970 C   0  0
    0.0900   -2.5670    0.6720 C   0  0
    1.4410   -3.1000    0.3520 C   0  0
    3.6290   -2.7660   -0.7420 C   0  0
   -2.5390   -1.5430    1.0880 C   0  0
   -2.2170    0.1930   -0.6950 C   0  0
   -0.8460   -3.2810    1.4690 C   0  0
    1.8580   -4.4060    0.7320 C   0  0
    4.0240   -4.0680   -0.3630 C   0  0
   -3.7810   -1.0490    1.3300 N   0  0
   -2.1290   -2.7460    1.7150 C   0  0
   -3.4220    0.7250   -0.4020 C   0  0
   -1.5310    0.6700   -1.9530 C   0  0
    3.1410   -4.8850    0.3790 C   0  0
   -4.2320    0.2680    0.7970 C   0  0
    3.5200   -6.1060    0.7440 F   0  0
   -5.6990    0.1520    0.3730 C   0  0
   -4.1020    1.3180    1.9020 C   0  0
    2.1860    4.9040    2.6430 H   0  0
    3.4980    4.2460    1.5740 H   0  0
    2.5040    5.6050    1.0590 H   0  0
    3.5020    4.6890   -0.5780 H   0  0
    2.3650    0.2910   -2.5640 H   0  0
   -0.0680    1.4320   -0.0700 H   0  0
    4.7620    3.8550   -2.5350 H   0  0
    4.1950    1.6500   -3.5330 H   0  0
    4.3070   -2.1470   -1.3090 H   0  0
   -0.6130   -4.2360    1.9140 H   0  0
    1.2170   -5.0700    1.2930 H   0  0
    5.0000   -4.4360   -0.6410 H   0  0
   -4.4260   -1.5670    1.9000 H   0  0
   -2.7910   -3.2770    2.3830 H   0  0
   -3.8300    1.4940   -1.0410 H   0  0
   -0.6720    0.0620   -2.2380 H   0  0
   -1.1850    1.6950   -1.8200 H   0  0
   -2.2340    0.6600   -2.7850 H   0  0
   -5.8380   -0.5880   -0.4120 H   0  0
   -6.0680    1.1070    0.0000 H   0  0
   -6.3220   -0.1370    1.2190 H   0  0
   -3.0680    1.4340    2.2340 H   0  0
   -4.7010    1.0430    2.7700 H   0  0
   -4.4490    2.2910    1.5530 H   0  0
  1  2  1  0
  1  3  1  0
  2  4  2  0
  2  5  1  0
  4  6  1  0
  4  7  1  0
  5  8  2  0
  6  9  2  0
  7 10  2  0
 10 11  1  0
 10 12  1  0
 11 13  1  0
 12 14  2  0
 12 15  1  0
 13 16  2  0
 13 17  1  0
 14 18  1  0
 14 19  1  0
 15 20  2  0
 16 21  1  0
 17 22  2  0
 18 23  1  0
 18 24  2  0
 19 25  2  0
 19 26  1  0
 21 27  2  0
 23 28  1  0
 27 29  1  0
 28 30  1  0
 28 31  1  0
  8  9  1  0
 15 16  1  0
 20 24  1  0
 22 27  1  0
 25 28  1  0
  3 32  1  0
  3 33  1  0
  3 34  1  0
  5 35  1  0
  6 36  1  0
  7 37  1  0
  8 38  1  0
  9 39  1  0
 17 40  1  0
 20 41  1  0
 21 42  1  0
 22 43  1  0
 23 44  1  0
 24 45  1  0
 25 46  1  0
 26 47  1  0
 26 48  1  0
 26 49  1  0
 30 50  1  0
 30 51  1  0
 30 52  1  0
 31 53  1  0
 31 54  1  0
 31 55  1  0
M  END
> <Name>
CHEMBL422444

> <IC50 nM>
860

> <Molecule_ChEMBL_ID>
CHEMBL422444

> <Smiles>
CSc1ccccc1/C=C1\Oc2ccc(F)cc2-c2ccc3c(c21)C(C)=CC(C)(C)N3

$$$$
CHEMBL1254264
  SciTegic08162514323D

 59 62  0  0  1  0            999 V2000
   -2.1740   -3.3400    0.1370 F   0  0
   -1.3420   -3.1110   -0.9280 C   0  0
   -0.0370   -3.2340   -0.5230 F   0  0
   -1.6020   -4.0250   -1.9160 F   0  0
   -1.5780   -1.6990   -1.4650 C   0  0  2  0  0  0
   -2.9690   -1.4980   -1.5800 O   0  0
   -0.9450   -1.4790   -2.8400 C   0  0
   -1.0410   -0.7340   -0.4080 C   0  0
    0.5630   -1.5920   -2.7750 C   0  0
   -1.9360    0.4900   -0.2190 C   0  0
    1.4240   -0.4670   -2.6990 N   0  0
    1.3520   -2.7600   -2.7770 C   0  0
   -1.0000    1.1640    0.7210 C   0  0
   -2.1170    1.2930   -1.5060 C   0  0
   -3.2660    0.1500    0.4570 C   0  0
    2.7150   -0.9610   -2.6540 C   0  0
    2.6290   -2.3300   -2.7050 C   0  0
    0.0450    1.9690    0.2290 C   0  0
   -1.1660    0.9940    2.1080 C   0  0
    3.9900   -0.3650   -2.5740 C   0  0
    3.8030   -3.1370   -2.6780 C   0  0
    0.2070    2.1350   -1.0700 O   0  0
    0.9200    2.6020    1.1290 C   0  0
   -0.2870    1.6290    3.0060 C   0  0
    5.1660   -1.0860   -2.5430 N   0  0
    5.0650   -2.4730   -2.5940 C   0  0
    1.1720    3.0820   -1.5040 C   0  0
    0.7580    2.4320    2.5140 C   0  0
   -0.4570    1.4530    4.4420 C   0  0
   -0.2600    2.5330    5.3300 C   0  0
   -0.8240    0.1970    4.9770 C   0  0
   -0.4220    2.3630    6.6760 N   0  0
   -0.9840    0.0390    6.3240 N   0  0
   -0.7770    1.1230    7.1270 C   0  0
   -3.2770   -2.0550   -2.3120 H   0  0
   -1.2210   -0.5020   -3.2380 H   0  0
   -1.3340   -2.1970   -3.5620 H   0  0
   -0.8870   -1.2500    0.5410 H   0  0
   -0.0200   -0.4340   -0.6420 H   0  0
    1.1500    0.4900   -2.6820 H   0  0
    1.0000   -3.7810   -2.8260 H   0  0
   -2.1860    2.3630   -1.3100 H   0  0
   -3.0250    0.9900   -2.0250 H   0  0
   -1.2770    1.1310   -2.1820 H   0  0
   -3.5510    0.9040    1.1920 H   0  0
   -3.2030   -0.8090    0.9710 H   0  0
   -4.0650    0.0820   -0.2790 H   0  0
   -1.9730    0.3750    2.4750 H   0  0
    4.0530    0.7110   -2.5350 H   0  0
    3.7460   -4.2150   -2.7170 H   0  0
    1.7250    3.2190    0.7540 H   0  0
    5.9690   -3.0660   -2.5720 H   0  0
    0.9000    4.0570   -1.0980 H   0  0
    2.1600    2.7090   -1.2420 H   0  0
    1.1170    3.1480   -2.5920 H   0  0
    1.4410    2.9260    3.1900 H   0  0
    0.0210    3.5080    4.9570 H   0  0
   -0.9840   -0.6520    4.3260 H   0  0
   -0.9040    0.9920    8.1920 H   0  0
  1  2  1  0
  2  3  1  0
  2  4  1  0
  2  5  1  0
  5  6  1  0
  5  7  1  0
  5  8  1  0
  7  9  1  0
  8 10  1  0
  9 11  1  0
  9 12  2  0
 10 13  1  0
 10 14  1  0
 10 15  1  0
 11 16  1  0
 12 17  1  0
 13 18  2  0
 13 19  1  0
 16 20  1  0
 17 21  1  0
 18 22  1  0
 18 23  1  0
 19 24  2  0
 20 25  2  0
 21 26  2  0
 22 27  1  0
 23 28  2  0
 24 29  1  0
 29 30  2  0
 29 31  1  0
 30 32  1  0
 31 33  2  0
 32 34  2  0
 16 17  2  0
 24 28  1  0
 25 26  1  0
 33 34  1  0
  6 35  1  0
  7 36  1  0
  7 37  1  0
  8 38  1  0
  8 39  1  0
 11 40  1  0
 12 41  1  0
 14 42  1  0
 14 43  1  0
 14 44  1  0
 15 45  1  0
 15 46  1  0
 15 47  1  0
 19 48  1  0
 20 49  1  0
 21 50  1  0
 23 51  1  0
 26 52  1  0
 27 53  1  0
 27 54  1  0
 27 55  1  0
 28 56  1  0
 30 57  1  0
 31 58  1  0
 34 59  1  0
M  END
> <Name>
CHEMBL1254264

> <IC50 nM>
2000

> <Molecule_ChEMBL_ID>
CHEMBL1254264

> <Smiles>
COc1ccc(-c2cncnc2)cc1C(C)(C)C[C@@](O)(Cc1cc2ccncc2[nH]1)C(F)(F)F

$$$$
CHEMBL1095228
  SciTegic08162514323D

 45 48  0  0  1  0            999 V2000
    4.4550    6.8260   -0.0390 F   0  0
    3.9690    5.5920    0.0570 C   0  0
    2.9140    5.3180    0.9450 C   0  0
    4.5060    4.5610   -0.7340 C   0  0
    2.3980    4.0140    1.0470 C   0  0
    3.9900    3.2560   -0.6350 C   0  0
    2.9360    2.9800    0.2580 C   0  0
    2.4380    1.7190    0.3550 N   0  0
    3.1880    0.5620    0.3790 N   0  0
    1.1310    1.3650    0.4450 C   0  0
    2.4570   -0.6020    0.4840 C   0  0
    1.2030   -0.0140    0.5200 C   0  0
   -0.0920    2.0760    0.4710 C   0  0
    0.0080   -0.7680    0.6270 C   0  0
   -1.2890    1.3260    0.5780 C   0  0
   -1.2420   -0.0920    0.6560 C   0  0
   -2.4900   -0.8610    0.7680 C   0  0  2  0  0  0
   -2.8950   -0.9100    2.1190 O   0  0
   -2.2660   -2.2440    0.2700 C   0  0
   -3.6190   -0.2270   -0.0450 C   0  0
   -1.7050   -2.4510   -1.0040 C   0  0
   -2.6150   -3.3460    1.0700 C   0  0
   -3.1210    0.2230   -1.2420 F   0  0
   -4.1490    0.8260    0.6520 F   0  0
   -4.5960   -1.1600   -0.2770 F   0  0
   -1.4940   -3.7580   -1.4770 C   0  0
   -2.4040   -4.6530    0.5980 C   0  0
   -1.8440   -4.8600   -0.6740 C   0  0
   -0.9020   -3.9770   -2.8220 C   0  0
    2.5000    6.1070    1.5550 H   0  0
    5.3150    4.7660   -1.4200 H   0  0
    1.5900    3.8240    1.7380 H   0  0
    4.4180    2.4770   -1.2500 H   0  0
    2.8070   -1.6250    0.5210 H   0  0
   -0.1150    3.1540    0.4120 H   0  0
    0.0390   -1.8480    0.6860 H   0  0
   -2.2380    1.8420    0.6000 H   0  0
   -2.1250   -1.1970    2.6370 H   0  0
   -1.4380   -1.6040   -1.6210 H   0  0
   -3.0470   -3.1930    2.0490 H   0  0
   -2.6720   -5.4980    1.2130 H   0  0
   -1.6840   -5.8650   -1.0310 H   0  0
   -0.8050   -5.0470   -3.0080 H   0  0
   -1.5100   -3.4730   -3.5740 H   0  0
    0.0960   -3.5410   -2.8560 H   0  0
  1  2  1  0
  2  3  2  0
  2  4  1  0
  3  5  1  0
  4  6  2  0
  5  7  2  0
  7  8  1  0
  8  9  1  0
  8 10  1  0
  9 11  2  0
 10 12  1  0
 10 13  2  0
 12 14  2  0
 13 15  1  0
 14 16  1  0
 16 17  1  0
 17 18  1  0
 17 19  1  0
 17 20  1  0
 19 21  2  0
 19 22  1  0
 20 23  1  0
 20 24  1  0
 20 25  1  0
 21 26  1  0
 22 27  2  0
 26 28  2  0
 26 29  1  0
  6  7  1  0
 11 12  1  0
 15 16  2  0
 27 28  1  0
  3 30  1  0
  4 31  1  0
  5 32  1  0
  6 33  1  0
 11 34  1  0
 13 35  1  0
 14 36  1  0
 15 37  1  0
 18 38  1  0
 21 39  1  0
 22 40  1  0
 27 41  1  0
 28 42  1  0
 29 43  1  0
 29 44  1  0
 29 45  1  0
M  END
> <Name>
CHEMBL1095228

> <IC50 nM>
52

> <Molecule_ChEMBL_ID>
CHEMBL1095228

> <Smiles>
Cc1cccc(C(O)(c2ccc3c(cnn3-c3ccc(F)cc3)c2)C(F)(F)F)c1

$$$$
CHEMBL193404
  SciTegic08162514323D

 51 55  0  0  1  0            999 V2000
    3.6050   -5.7300    4.2740 Cl  0  0
    3.2270   -4.8260    2.8670 C   0  0
    1.7890   -4.2030    2.1950 S   0  0
    4.3030   -4.4800    2.0220 C   0  0
    2.5510   -3.5120    0.8500 C   0  0
    3.9300   -3.7400    0.8830 C   0  0
    1.7620   -2.7620   -0.2010 C   0  0  2  0  0  0
    2.3960   -2.8980   -1.4530 O   0  0
    1.6740   -1.2650    0.1310 C   0  0  2  0  0  0
    0.4360   -0.5940   -0.5250 C   0  0  2  0  0  0
    2.9940   -0.5600   -0.2090 C   0  0
    0.4730    0.9380   -0.3550 C   0  0
   -0.8540   -1.2810    0.0450 C   0  0
    0.4770   -0.8200   -2.0450 C   0  0
    2.9550    0.8990    0.2400 C   0  0
   -0.6560    1.6600   -0.1740 C   0  0
    1.8070    1.6560   -0.4340 C   0  0
   -2.1020   -0.4160   -0.0180 C   0  0
   -1.9470    0.9570   -0.0940 C   0  0
   -3.4180   -0.8730    0.0220 C   0  0
   -3.2360    1.3870   -0.0740 N   0  0
   -4.0740    0.3170   -0.0140 N   0  0
   -3.6430    2.6840   -0.1090 C   0  0
   -3.0610    3.5780   -1.0290 C   0  0
   -4.6450    3.1350    0.7700 C   0  0
   -3.4810    4.9200   -1.0640 C   0  0
   -5.0630    4.4770    0.7310 C   0  0
   -4.4810    5.3690   -0.1860 C   0  0
   -4.8770    6.6390   -0.2230 F   0  0
    5.3340   -4.7540    2.2130 H   0  0
    4.6210   -3.3910    0.1270 H   0  0
    0.7620   -3.1890   -0.2790 H   0  0
    2.3570   -3.8360   -1.6930 H   0  0
    1.5550   -1.1930    1.2130 H   0  0
    3.1880   -0.6150   -1.2810 H   0  0
    3.8260   -1.0680    0.2810 H   0  0
   -1.0390   -2.2320   -0.4610 H   0  0
   -0.7110   -1.5270    1.0980 H   0  0
   -0.3110   -0.2520   -2.5390 H   0  0
    1.4410   -0.5190   -2.4510 H   0  0
    0.3280   -1.8730   -2.2810 H   0  0
    2.8380    0.9440    1.3220 H   0  0
    3.9040    1.3870    0.0120 H   0  0
   -0.6190    2.7370   -0.0980 H   0  0
    2.0490    1.8090   -1.4860 H   0  0
    1.7320    2.6530    0.0080 H   0  0
   -3.8400   -1.8690    0.0680 H   0  0
   -2.2910    3.2520   -1.7130 H   0  0
   -5.1040    2.4630    1.4820 H   0  0
   -3.0310    5.6020   -1.7710 H   0  0
   -5.8300    4.8190    1.4080 H   0  0
  1  2  1  0
  2  3  1  0
  2  4  2  0
  3  5  1  0
  4  6  1  0
  5  7  1  0
  7  8  1  0
  7  9  1  0
  9 10  1  0
  9 11  1  0
 10 12  1  0
 10 13  1  0
 10 14  1  0
 11 15  1  0
 12 16  2  0
 12 17  1  0
 13 18  1  0
 16 19  1  0
 18 20  1  0
 19 21  1  0
 20 22  2  0
 21 23  1  0
 23 24  2  0
 23 25  1  0
 24 26  1  0
 25 27  2  0
 26 28  2  0
 28 29  1  0
  5  6  2  0
 15 17  1  0
 18 19  2  0
 21 22  1  0
 27 28  1  0
  4 30  1  0
  6 31  1  0
  7 32  1  0
  8 33  1  0
  9 34  1  0
 11 35  1  0
 11 36  1  0
 13 37  1  0
 13 38  1  0
 14 39  1  0
 14 40  1  0
 14 41  1  0
 15 42  1  0
 15 43  1  0
 16 44  1  0
 17 45  1  0
 17 46  1  0
 20 47  1  0
 24 48  1  0
 25 49  1  0
 26 50  1  0
 27 51  1  0
M  END
> <Name>
CHEMBL193404

> <IC50 nM>
7.6

> <Molecule_ChEMBL_ID>
CHEMBL193404

> <Smiles>
C[C@]12Cc3cnn(-c4ccc(F)cc4)c3C=C1CCC[C@@H]2[C@@H](O)c1ccc(Cl)s1

$$$$
CHEMBL393920
  SciTegic08162514323D

 58 61  0  0  1  0            999 V2000
    1.8160   -2.3380    1.2050 F   0  0
    1.9360   -1.0180    1.5590 C   0  0
    1.8480   -0.8980    2.9200 F   0  0
    3.1490   -0.5390    1.1350 F   0  0
    0.8140   -0.2130    0.9020 C   0  0  3  0  0  0
    1.3570    0.4900   -0.1910 O   0  0
    0.1800    0.8010    1.8560 C   0  0
   -0.1950   -1.2290    0.3630 C   0  0
   -0.7790    1.6620    1.1470 N   0  0
    0.1090   -1.6580   -1.0760 C   0  0  3  0  0  0
   -0.7830    2.9900    1.3710 C   0  0
    1.3810   -2.4490   -1.0720 C   0  0
   -1.0900   -2.4650   -1.6230 C   0  0
    0.2540   -0.3950   -1.9410 C   0  0
   -1.9880    3.7560    1.4940 C   0  0
    0.4650    3.6520    1.4860 C   0  0
    1.3890   -3.8710   -1.2300 C   0  0
    2.6210   -1.7730   -0.8910 C   0  0
   -1.1330   -3.8750   -1.0350 C   0  0
   -0.3810   -0.5490   -3.3220 C   0  0
   -1.9200    5.1720    1.7330 C   0  0
   -3.2810    3.1520    1.3890 C   0  0
    0.5290    5.0430    1.7210 C   0  0
    2.6210   -4.5760   -1.2130 C   0  0
    0.1350   -4.6470   -1.4200 C   0  0
    3.8400   -2.4840   -0.8730 C   0  0
   -3.0700    5.9280    1.8540 N   0  0
   -0.6560    5.7990    1.8420 C   0  0
   -4.4450    3.9470    1.5180 C   0  0
    3.8420   -3.8870   -1.0370 C   0  0
   -4.3130    5.3360    1.7500 C   0  0
    1.4570    1.4160    0.0840 H   0  0
    0.9450    1.4240    2.3200 H   0  0
   -0.3300    0.2930    2.6740 H   0  0
   -0.2540   -2.0960    1.0200 H   0  0
   -1.2110   -0.8420    0.4450 H   0  0
   -1.4280    1.2600    0.5000 H   0  0
   -2.0250   -1.9430   -1.4100 H   0  0
   -1.0270   -2.5390   -2.7110 H   0  0
   -0.1540    0.4750   -1.4240 H   0  0
    1.3030   -0.1060   -2.0270 H   0  0
    1.3930    3.1050    1.3990 H   0  0
    2.6430   -0.7010   -0.7600 H   0  0
   -2.0160   -4.4060   -1.3920 H   0  0
   -1.2250   -3.8200    0.0510 H   0  0
   -0.2130    0.3460   -3.9260 H   0  0
    0.0350   -1.4100   -3.8440 H   0  0
   -1.4570   -0.6970   -3.2380 H   0  0
   -3.4020    2.0940    1.2130 H   0  0
    1.4900    5.5290    1.8070 H   0  0
    2.6350   -5.6490   -1.3360 H   0  0
    0.1740   -5.5740   -0.8460 H   0  0
    0.0740   -4.9360   -2.4690 H   0  0
    4.7720   -1.9570   -0.7360 H   0  0
   -0.5800    6.8610    2.0220 H   0  0
   -5.4240    3.4980    1.4400 H   0  0
    4.7740   -4.4320   -1.0250 H   0  0
   -5.1990    5.9430    1.8480 H   0  0
  1  2  1  0
  2  3  1  0
  2  4  1  0
  2  5  1  0
  5  6  1  0
  5  7  1  0
  5  8  1  0
  7  9  1  0
  8 10  1  0
  9 11  1  0
 10 12  1  0
 10 13  1  0
 10 14  1  0
 11 15  2  0
 11 16  1  0
 12 17  2  0
 12 18  1  0
 13 19  1  0
 14 20  1  0
 15 21  1  0
 15 22  1  0
 16 23  2  0
 17 24  1  0
 17 25  1  0
 18 26  2  0
 21 27  1  0
 21 28  2  0
 22 29  2  0
 24 30  2  0
 27 31  2  0
 19 25  1  0
 23 28  1  0
 26 30  1  0
 29 31  1  0
  6 32  1  0
  7 33  1  0
  7 34  1  0
  8 35  1  0
  8 36  1  0
  9 37  1  0
 13 38  1  0
 13 39  1  0
 14 40  1  0
 14 41  1  0
 16 42  1  0
 18 43  1  0
 19 44  1  0
 19 45  1  0
 20 46  1  0
 20 47  1  0
 20 48  1  0
 22 49  1  0
 23 50  1  0
 24 51  1  0
 25 52  1  0
 25 53  1  0
 26 54  1  0
 28 55  1  0
 29 56  1  0
 30 57  1  0
 31 58  1  0
M  END
> <Name>
CHEMBL393920

> <IC50 nM>
11.22

> <Molecule_ChEMBL_ID>
CHEMBL393920

> <Smiles>
CCC1(CC(O)(CNc2cccc3ncccc23)C(F)(F)F)CCCc2ccccc21

$$$$
CHEMBL182610
  SciTegic08162514323D

 62 65  0  0  0  0            999 V2000
   -3.0650    2.6910   -1.6070 S   0  0
   -2.5900    4.0390   -1.8710 O   0  0
   -2.1720    1.6620   -2.1090 O   0  0
   -3.1600    2.5140    0.0000 N   0  0
   -4.6680    2.4860   -2.3710 C   0  0
   -2.3280    1.6350    0.6430 C   0  0
   -0.9200    1.7770    0.5840 C   0  0
   -2.8950    0.5720    1.3730 C   0  0
   -0.0940    0.8480    1.2620 C   0  0
   -0.3090    2.9020   -0.1890 C   0  0
   -2.0700   -0.3440    2.0430 C   0  0
    1.2730    0.9550    1.2290 N   0  0
   -0.6760   -0.2070    1.9880 C   0  0
    2.0160    0.7850   -0.0290 C   0  0
    2.0190    1.2400    2.4630 C   0  0
    1.4980   -0.3630   -0.8180 C   0  0
    1.3790    2.3260    3.2500 C   0  0
    0.8610   -0.1390   -2.0510 C   0  0
    1.6460   -1.6740   -0.3340 C   0  0
    0.4240    2.0140    4.2350 C   0  0
    1.7270    3.6680    3.0120 C   0  0
    0.3710   -1.2250   -2.7970 C   0  0
    1.1560   -2.7600   -1.0820 C   0  0
   -0.1820    3.0410    4.9790 C   0  0
    1.1190    4.6950    3.7560 C   0  0
    0.5180   -2.5370   -2.3140 C   0  0
    0.1660    4.3810    4.7380 C   0  0
    0.0590   -3.5550   -3.0160 O   0  0
    0.7580   -4.6720   -3.0160 C   0  0
    0.1030   -5.9160   -3.0160 C   0  0
    2.1640   -4.6250   -3.0160 C   0  0
    0.8500   -7.1070   -3.0160 C   0  0
    2.9120   -5.8150   -3.0160 C   0  0
    2.2540   -7.0570   -3.0160 C   0  0
   -3.8260    3.0450    0.5220 H   0  0
   -4.6660    2.5960   -3.4550 H   0  0
   -5.3610    3.2230   -1.9630 H   0  0
   -5.0570    1.4960   -2.1390 H   0  0
   -3.9670    0.4470    1.4300 H   0  0
   -1.0000    3.7460   -0.2110 H   0  0
    0.6560    3.1580    0.2440 H   0  0
   -0.1410    2.5860   -1.2190 H   0  0
   -2.5120   -1.1560    2.6020 H   0  0
   -0.0610   -0.9260    2.5140 H   0  0
    3.0700    0.6250    0.1950 H   0  0
    1.9340    1.6970   -0.6190 H   0  0
    3.0390    1.5310    2.2070 H   0  0
    2.0720    0.3360    3.0680 H   0  0
    0.7440    0.8670   -2.4300 H   0  0
    2.1350   -1.8540    0.6130 H   0  0
    0.1520    0.9840    4.4240 H   0  0
    2.4590    3.9160    2.2560 H   0  0
   -0.1170   -1.0470   -3.7440 H   0  0
    1.2710   -3.7660   -0.7050 H   0  0
   -0.9140    2.8010    5.7350 H   0  0
    1.3870    5.7250    3.5700 H   0  0
   -0.3010    5.1700    5.3110 H   0  0
   -0.9770   -5.9590   -3.0160 H   0  0
    2.6740   -3.6720   -3.0160 H   0  0
    0.3440   -8.0630   -3.0160 H   0  0
    3.9900   -5.7750   -3.0160 H   0  0
    2.8280   -7.9730   -3.0160 H   0  0
  1  2  2  0
  1  3  2  0
  1  4  1  0
  1  5  1  0
  4  6  1  0
  6  7  2  0
  6  8  1  0
  7  9  1  0
  7 10  1  0
  8 11  2  0
  9 12  1  0
  9 13  2  0
 12 14  1  0
 12 15  1  0
 14 16  1  0
 15 17  1  0
 16 18  2  0
 16 19  1  0
 17 20  2  0
 17 21  1  0
 18 22  1  0
 19 23  2  0
 20 24  1  0
 21 25  2  0
 22 26  2  0
 24 27  2  0
 26 28  1  0
 28 29  1  0
 29 30  2  0
 29 31  1  0
 30 32  1  0
 31 33  2  0
 32 34  2  0
 11 13  1  0
 23 26  1  0
 25 27  1  0
 33 34  1  0
  4 35  1  0
  5 36  1  0
  5 37  1  0
  5 38  1  0
  8 39  1  0
 10 40  1  0
 10 41  1  0
 10 42  1  0
 11 43  1  0
 13 44  1  0
 14 45  1  0
 14 46  1  0
 15 47  1  0
 15 48  1  0
 18 49  1  0
 19 50  1  0
 20 51  1  0
 21 52  1  0
 22 53  1  0
 23 54  1  0
 24 55  1  0
 25 56  1  0
 27 57  1  0
 30 58  1  0
 31 59  1  0
 32 60  1  0
 33 61  1  0
 34 62  1  0
M  END
> <Name>
CHEMBL182610

> <IC50 nM>
2.7

> <Molecule_ChEMBL_ID>
CHEMBL182610

> <Smiles>
Cc1c(NS(C)(=O)=O)cccc1N(Cc1ccccc1)Cc1ccc(Oc2ccccc2)cc1

$$$$
CHEMBL196185
  SciTegic08162514323D

 60 64  0  0  1  0            999 V2000
   -5.0630    6.8300   -2.7110 F   0  0
   -4.6820    5.7170   -2.0900 C   0  0
   -3.6020    4.9670   -2.5880 C   0  0
   -5.3580    5.2910   -0.9340 C   0  0
   -3.1990    3.7910   -1.9320 C   0  0
   -4.9570    4.1150   -0.2750 C   0  0
   -3.8750    3.3630   -0.7730 C   0  0
   -3.4860    2.2270   -0.1390 N   0  0
   -4.3360    1.2720    0.3300 N   0  0
   -2.2030    1.8630    0.1250 C   0  0
   -3.6930    0.2320    0.9320 C   0  0
   -2.3750    0.6560    0.7830 C   0  0
   -0.8970    2.4880   -0.1500 C   0  0
   -1.1270   -0.0620    1.2830 C   0  0
    0.2170    1.7500    0.0660 C   0  0
    0.1350    0.2520    0.4040 C   0  0  1  0  0  0
    1.5940    2.3710   -0.0140 C   0  0
    1.4550   -0.2050    1.1270 C   0  0
   -0.0390   -0.4800   -0.9410 C   0  0
    2.3730    2.1760    1.3010 C   0  0
    1.2770   -1.4080    1.8560 O   0  0
    2.4730   -0.5760    0.1970 O   0  0
    2.0140    0.8810    2.0650 C   0  0
    1.5100   -2.5140    1.0160 C   0  0  1  0  0  0
    2.6600   -1.9790    0.1660 C   0  0  1  0  0  0
    1.8120   -3.7440    1.8300 C   0  0
    2.6860   -2.4730   -1.2580 C   0  0
    1.1540   -4.8790    1.5470 C   0  0
    3.7890   -3.0960   -1.7010 C   0  0
    1.4570   -6.1070    2.3590 C   0  0
    3.8130   -3.5880   -3.1230 C   0  0
   -3.0780    5.2910   -3.4750 H   0  0
   -6.1880    5.8650   -0.5470 H   0  0
   -2.3650    3.2290   -2.3300 H   0  0
   -5.4900    3.8030    0.6110 H   0  0
   -4.1310   -0.6480    1.3830 H   0  0
   -0.8340    3.5080   -0.5040 H   0  0
   -1.3180   -1.1370    1.3180 H   0  0
   -0.9510    0.2600    2.3110 H   0  0
    2.1330    1.9000   -0.8360 H   0  0
    1.5310    3.4320   -0.2580 H   0  0
    0.8590   -0.4180   -1.5570 H   0  0
   -0.8630   -0.0510   -1.5120 H   0  0
   -0.2600   -1.5350   -0.7790 H   0  0
    3.4390    2.1840    1.0760 H   0  0
    2.2050    3.0290    1.9590 H   0  0
    2.8890    0.5270    2.6110 H   0  0
    1.2640    1.1150    2.8220 H   0  0
    0.6170   -2.6760    0.4260 H   0  0
    3.6150   -2.1780    0.6370 H   0  0
    2.5230   -3.8110    2.6410 H   0  0
    1.7950   -2.2890   -1.8420 H   0  0
    0.4120   -4.9880    0.7700 H   0  0
    4.5860   -3.1930   -0.9800 H   0  0
    0.6930   -6.8810    2.2810 H   0  0
    1.5570   -5.8420    3.4120 H   0  0
    2.4040   -6.5430    2.0350 H   0  0
    4.8420   -3.7320   -3.4490 H   0  0
    3.2320   -4.5080   -3.2070 H   0  0
    3.3550   -2.8460   -3.7790 H   0  0
  1  2  1  0
  2  3  2  0
  2  4  1  0
  3  5  1  0
  4  6  2  0
  5  7  2  0
  7  8  1  0
  8  9  1  0
  8 10  1  0
  9 11  2  0
 10 12  2  0
 10 13  1  0
 12 14  1  0
 13 15  2  0
 14 16  1  0
 15 17  1  0
 16 18  1  0
 16 19  1  0
 17 20  1  0
 18 21  1  0
 18 22  1  0
 18 23  1  0
 21 24  1  0
 22 25  1  0
 24 26  1  0
 25 27  1  0
 26 28  2  0
 27 29  2  0
 28 30  1  0
 29 31  1  0
  6  7  1  0
 11 12  1  0
 15 16  1  0
 20 23  1  0
 24 25  1  0
  3 32  1  0
  4 33  1  0
  5 34  1  0
  6 35  1  0
 11 36  1  0
 13 37  1  0
 14 38  1  0
 14 39  1  0
 17 40  1  0
 17 41  1  0
 19 42  1  0
 19 43  1  0
 19 44  1  0
 20 45  1  0
 20 46  1  0
 23 47  1  0
 23 48  1  0
 24 49  1  0
 25 50  1  0
 26 51  1  0
 27 52  1  0
 28 53  1  0
 29 54  1  0
 30 55  1  0
 30 56  1  0
 30 57  1  0
 31 58  1  0
 31 59  1  0
 31 60  1  0
M  END
> <Name>
CHEMBL196185

> <IC50 nM>
2.5

> <Molecule_ChEMBL_ID>
CHEMBL196185

> <Smiles>
C/C=C/[C@H]1OC2(CCCC3=Cc4c(cnn4-c4ccc(F)cc4)C[C@@]32C)O[C@@H]1/C=C/C

$$$$
CHEMBL2311179
  SciTegic08162514323D

 44 47  0  0  1  0            999 V2000
   -6.1520   -0.1840    0.6480 O   0  0
   -4.9450   -0.2460    0.6820 C   0  0
   -4.1250    0.9590    0.4960 C   0  0
   -4.2280   -1.5490    0.9200 C   0  0
   -2.8030    0.8980    0.2280 C   0  0
   -2.9260   -1.6760    0.1110 C   0  0
   -2.0940   -0.4000    0.0290 C   0  0
   -2.0290    2.1930    0.1210 C   0  0
   -0.7600   -0.4380   -0.2400 C   0  0
   -0.5760    1.9880    0.5430 C   0  0
    0.0720    0.8440   -0.2540 C   0  0  1  0  0  0
   -0.0100   -1.7270   -0.5700 C   0  0
    1.4810    0.6250    0.3200 C   0  0  1  0  0  0
    1.4240   -1.8050   -0.0140 C   0  0
    2.2030   -0.5370   -0.3690 C   0  0  2  0  0  0
    2.4830    1.7720    0.1720 C   0  0
    3.5610   -0.3980    0.3360 C   0  0  2  0  0  0
    2.3180   -0.3300   -1.8870 C   0  0
    3.8580    1.1040    0.2850 C   0  0
    4.5740   -1.1500   -0.3030 O   0  0
   -4.6070    1.9220    0.5800 H   0  0
   -4.8910   -2.3850    0.6930 H   0  0
   -4.0000   -1.6170    1.9840 H   0  0
   -3.1580   -2.0000   -0.9040 H   0  0
   -2.3650   -2.4810    0.5800 H   0  0
   -2.0740    2.5510   -0.9080 H   0  0
   -2.4820    2.9650    0.7440 H   0  0
   -0.5430    1.7660    1.6110 H   0  0
   -0.0210    2.9160    0.4000 H   0  0
    0.1580    1.1620   -1.2930 H   0  0
   -0.5350   -2.6110   -0.2250 H   0  0
    0.0250   -1.8220   -1.6560 H   0  0
    1.3830    0.4040    1.3770 H   0  0
    1.3890   -1.9390    1.0680 H   0  0
    1.9300   -2.6840   -0.4140 H   0  0
    2.3380    2.5310    0.9260 H   0  0
    2.3790    2.2480   -0.7950 H   0  0
    3.4960   -0.7320    1.3610 H   0  0
    1.3320   -0.2400   -2.3400 H   0  0
    2.8950    0.5680   -2.1100 H   0  0
    2.8240   -1.1740   -2.3540 H   0  0
    4.4650    1.3750   -0.5670 H   0  0
    4.3830    1.4220    1.1740 H   0  0
    4.3540   -2.0880   -0.1860 H   0  0
  1  2  2  0
  2  3  1  0
  2  4  1  0
  3  5  2  0
  4  6  1  0
  5  7  1  0
  5  8  1  0
  7  9  2  0
  8 10  1  0
  9 11  1  0
  9 12  1  0
 11 13  1  0
 12 14  1  0
 13 15  1  0
 13 16  1  0
 15 17  1  0
 15 18  1  0
 16 19  1  0
 17 20  1  0
  6  7  1  0
 11 10  1  0
 14 15  1  0
 17 19  1  0
  3 21  1  0
  4 22  1  0
  4 23  1  0
  6 24  1  0
  6 25  1  0
  8 26  1  0
  8 27  1  0
 10 28  1  0
 10 29  1  0
 11 30  1  0
 12 31  1  0
 12 32  1  0
 13 33  1  0
 14 34  1  0
 14 35  1  0
 16 36  1  0
 16 37  1  0
 17 38  1  0
 18 39  1  0
 18 40  1  0
 18 41  1  0
 19 42  1  0
 19 43  1  0
 20 44  1  0
M  END
> <Name>
CHEMBL2311179

> <IC50 nM>
133

> <Molecule_ChEMBL_ID>
CHEMBL2311179

> <Smiles>
C[C@]12CCC3=C4CCC(=O)C=C4CC[C@H]3[C@@H]1CC[C@@H]2O

$$$$
CHEMBL184228
  SciTegic08162514323D

 50 53  0  0  1  0            999 V2000
    5.6970   -1.1950    1.5920 O   0  0
    4.5330   -0.8830    1.4920 C   0  0
    3.4980   -1.8910    1.2240 C   0  0
    4.0780    0.5450    1.6480 C   0  0
    2.2790   -1.5590    0.7540 C   0  0
    2.9610    0.9340    0.6640 C   0  0
    1.9360   -0.1580    0.3810 C   0  0
    1.2400   -2.6490    0.6010 C   0  0
    0.7420    0.1350   -0.2070 C   0  0
   -0.1780   -2.0760    0.5560 C   0  0
   -0.2730   -0.9630   -0.5060 C   0  0  3  0  0  0
    0.3160    1.5410   -0.5940 C   0  0  2  0  0  0
   -1.6950   -0.4020   -0.8030 C   0  0  3  0  0  0
   -0.9650    1.8910    0.1760 C   0  0
    0.1450    1.6700   -2.1120 C   0  0
   -2.1040    0.8610   -0.0140 C   0  0  2  0  0  0
   -2.8610   -1.3540   -0.5120 C   0  0
    1.2110    0.9020   -2.8950 C   0  0
   -2.5470    0.2170    1.3120 C   0  0  2  0  0  0
   -3.2890    1.5020   -0.7560 C   0  0
   -3.2310   -1.1080    0.9510 C   0  0
   -3.4160    1.0590    2.0490 O   0  0
    3.7310   -2.9300    1.4160 H   0  0
    3.7170    0.6740    2.6680 H   0  0
    4.9280    1.2210    1.5370 H   0  0
    2.4770    1.8140    1.0820 H   0  0
    3.4080    1.2380   -0.2850 H   0  0
    1.3180   -3.3600    1.4260 H   0  0
    1.4430   -3.2050   -0.3130 H   0  0
   -0.8650   -2.8930    0.3420 H   0  0
   -0.4450   -1.6950    1.5410 H   0  0
    0.0470   -1.4320   -1.4380 H   0  0
    1.0680    2.2750   -0.3230 H   0  0
   -1.7130   -0.1720   -1.8600 H   0  0
   -1.2950    2.8890   -0.1140 H   0  0
   -0.7170    1.9780    1.2360 H   0  0
   -0.8540    1.3590   -2.4140 H   0  0
    0.1290    2.7190   -2.4080 H   0  0
   -3.7050   -1.0940   -1.1370 H   0  0
   -2.6430   -2.3890   -0.7290 H   0  0
    1.1580    1.1460   -3.9550 H   0  0
    2.2070    1.1410   -2.5240 H   0  0
    1.0640   -0.1720   -2.7910 H   0  0
   -1.6910    0.0270    1.9410 H   0  0
   -3.5510    2.4750   -0.3400 H   0  0
   -4.1700    0.8630   -0.6980 H   0  0
   -3.0510    1.6440   -1.8110 H   0  0
   -2.8630   -1.9040    1.5840 H   0  0
   -4.3050   -1.0800    1.0640 H   0  0
   -2.9060    1.8440    2.3030 H   0  0
  1  2  2  0
  2  3  1  0
  2  4  1  0
  3  5  2  0
  4  6  1  0
  5  7  1  0
  5  8  1  0
  7  9  2  0
  8 10  1  0
  9 11  1  0
  9 12  1  0
 11 13  1  0
 12 14  1  0
 12 15  1  0
 13 16  1  0
 13 17  1  0
 15 18  1  0
 16 19  1  0
 16 20  1  0
 17 21  1  0
 19 22  1  0
  6  7  1  0
 10 11  1  0
 14 16  1  0
 19 21  1  0
  3 23  1  0
  4 24  1  0
  4 25  1  0
  6 26  1  0
  6 27  1  0
  8 28  1  0
  8 29  1  0
 10 30  1  0
 10 31  1  0
 11 32  1  0
 12 33  1  0
 13 34  1  0
 14 35  1  0
 14 36  1  0
 15 37  1  0
 15 38  1  0
 17 39  1  0
 17 40  1  0
 18 41  1  0
 18 42  1  0
 18 43  1  0
 19 44  1  0
 20 45  1  0
 20 46  1  0
 20 47  1  0
 21 48  1  0
 21 49  1  0
 22 50  1  0
M  END
> <Name>
CHEMBL184228

> <IC50 nM>
1294

> <Molecule_ChEMBL_ID>
CHEMBL184228

> <Smiles>
CC[C@H]1C[C@@]2(C)C(CC[C@@H]2O)C2CCC3=CC(=O)CCC3=C21

$$$$
CHEMBL219290
  SciTegic08162514323D

 48 49  0  0  1  0            999 V2000
   -2.4470   -0.4550    4.7850 F   0  0
   -2.4040   -0.4100    3.4550 C   0  0
   -1.5940    0.5390    2.8090 C   0  0
   -3.1720   -1.3100    2.6970 C   0  0
   -1.5490    0.5860    1.4040 C   0  0
   -3.1270   -1.2640    1.2930 C   0  0
   -2.3160   -0.3160    0.6430 C   0  0
   -0.6880    1.5940    0.7300 C   0  0
   -2.2830   -0.2790   -0.6760 O   0  0
    0.4940    0.6390    0.5640 C   0  0
   -0.3690    2.7700    1.6540 C   0  0
   -1.2790    2.0370   -0.6080 C   0  0
   -3.1600   -1.1390   -1.3890 C   0  0
    1.6350    1.2460   -0.2540 C   0  0  1  0  0  0
    1.4610    2.6450   -0.2810 O   0  0
    2.9280    0.9420    0.5060 C   0  0
    1.6640    0.7400   -1.6950 C   0  0
    2.9430    1.6470    1.6820 F   0  0
    4.0040    1.3050   -0.2600 F   0  0
    2.9900   -0.4000    0.7770 F   0  0
    1.9020   -0.7130   -1.7380 N   0  0
    0.8240   -1.5800   -1.7500 C   0  0
    3.2010   -1.1890   -1.7680 C   0  0
    0.9940   -2.9200   -1.7890 C   0  0
    3.4670   -2.5160   -1.8070 C   0  0
    2.3570   -3.4860   -1.8200 C   0  0
    2.5530   -4.6780   -1.8560 O   0  0
   -1.0040    1.2310    3.3930 H   0  0
   -3.7970   -2.0430    3.1890 H   0  0
   -3.7170   -1.9570    0.7130 H   0  0
    0.1680   -0.3050    0.1270 H   0  0
    0.8550    0.2990    1.5350 H   0  0
   -1.2090    3.0120    2.3070 H   0  0
   -0.1310    3.6620    1.0740 H   0  0
    0.4900    2.5430    2.2850 H   0  0
   -2.3650    2.1210   -0.5650 H   0  0
   -1.0310    1.3240   -1.3950 H   0  0
   -0.8830    3.0100   -0.9020 H   0  0
   -3.1150   -0.8730   -2.4450 H   0  0
   -2.9080   -2.1700   -1.1410 H   0  0
   -4.1780   -0.9530   -1.0430 H   0  0
    2.1520    3.0080   -0.8580 H   0  0
    2.4410    1.2460   -2.2680 H   0  0
    0.7270    0.9650   -2.2010 H   0  0
   -0.1910   -1.2070   -1.7290 H   0  0
    4.0430   -0.5140   -1.7580 H   0  0
    0.1350   -3.5740   -1.7990 H   0  0
    4.4900   -2.8590   -1.8280 H   0  0
  1  2  1  0
  2  3  2  0
  2  4  1  0
  3  5  1  0
  4  6  2  0
  5  7  2  0
  5  8  1  0
  7  9  1  0
  8 10  1  0
  8 11  1  0
  8 12  1  0
  9 13  1  0
 10 14  1  0
 14 15  1  0
 14 16  1  0
 14 17  1  0
 16 18  1  0
 16 19  1  0
 16 20  1  0
 17 21  1  0
 21 22  1  0
 21 23  1  0
 22 24  2  0
 23 25  2  0
 24 26  1  0
 26 27  2  0
  6  7  1  0
 25 26  1  0
  3 28  1  0
  4 29  1  0
  6 30  1  0
 10 31  1  0
 10 32  1  0
 11 33  1  0
 11 34  1  0
 11 35  1  0
 12 36  1  0
 12 37  1  0
 12 38  1  0
 13 39  1  0
 13 40  1  0
 13 41  1  0
 15 42  1  0
 17 43  1  0
 17 44  1  0
 22 45  1  0
 23 46  1  0
 24 47  1  0
 25 48  1  0
M  END
> <Name>
CHEMBL219290

> <IC50 nM>
2000

> <Molecule_ChEMBL_ID>
CHEMBL219290

> <Smiles>
COc1ccc(F)cc1C(C)(C)CC(O)(Cn1ccc(=O)cc1)C(F)(F)F

$$$$
CHEMBL219207
  SciTegic08162514323D

 51 53  0  0  1  0            999 V2000
   -0.0490   -7.1900   -1.9060 F   0  0
   -0.0840   -5.9080   -1.5490 C   0  0
   -1.1480   -5.0920   -1.9650 C   0  0
    0.9430   -5.3710   -0.7540 C   0  0
   -1.1910   -3.7360   -1.5900 C   0  0
    0.9060   -4.0180   -0.3790 C   0  0
   -2.1950   -2.9790   -1.9860 O   0  0
   -0.1600   -3.1990   -0.7950 C   0  0
   -0.1890   -1.7700   -0.3890 C   0  0
    1.0080   -1.4080    0.4920 C   0  0
   -1.5270   -1.3930    0.2500 C   0  0
   -0.0490   -1.2440   -1.8180 C   0  0
    1.0000    0.0590    0.9240 C   0  0  1  0  0  0
   -0.0530    0.2420    1.8440 O   0  0
    2.3200    0.3030    1.6560 C   0  0
    0.7870    1.0180   -0.2460 C   0  0
    2.5630   -0.7320    2.5220 F   0  0
    2.2440    1.4770    2.3590 F   0  0
    3.3400    0.3830    0.7420 F   0  0
    0.8480    2.4240    0.2030 N   0  0
   -0.2930    3.1450    0.4510 C   0  0
    2.1060    2.9790    0.3650 C   0  0
   -0.2030    4.5060    0.8830 C   0  0
   -1.5880    2.5700    0.2870 C   0  0
    2.2870    4.2540    0.7700 C   0  0
    1.1390    5.1350    1.0630 C   0  0
   -1.3730    5.2600    1.1430 C   0  0
   -2.7520    3.3280    0.5490 C   0  0
    1.3810    6.2660    1.4160 O   0  0
   -2.6440    4.6700    0.9770 C   0  0
   -1.9390   -5.5020   -2.5740 H   0  0
    1.7660   -5.9940   -0.4320 H   0  0
    1.6990   -3.6110    0.2320 H   0  0
   -2.8930   -3.3650   -2.5310 H   0  0
    1.9430   -1.6580   -0.0080 H   0  0
    1.0590   -2.0660    1.3590 H   0  0
   -2.3440   -2.0120   -0.1230 H   0  0
   -1.7750   -0.3520    0.0370 H   0  0
   -1.4840   -1.5120    1.3320 H   0  0
   -0.8610   -0.5590   -2.0590 H   0  0
    0.9020   -0.7280   -1.9470 H   0  0
   -0.0840   -2.0640   -2.5350 H   0  0
   -0.7340    0.7680    1.3970 H   0  0
   -0.1760    0.8340   -0.7250 H   0  0
    1.5390    0.8560   -1.0200 H   0  0
    2.9940    2.3970    0.1680 H   0  0
   -1.7110    1.5470   -0.0390 H   0  0
    3.2930    4.6350    0.8790 H   0  0
   -1.3050    6.2870    1.4710 H   0  0
   -3.7270    2.8790    0.4220 H   0  0
   -3.5370    5.2440    1.1760 H   0  0
  1  2  1  0
  2  3  2  0
  2  4  1  0
  3  5  1  0
  4  6  2  0
  5  7  1  0
  5  8  2  0
  8  9  1  0
  9 10  1  0
  9 11  1  0
  9 12  1  0
 10 13  1  0
 13 14  1  0
 13 15  1  0
 13 16  1  0
 15 17  1  0
 15 18  1  0
 15 19  1  0
 16 20  1  0
 20 21  1  0
 20 22  1  0
 21 23  2  0
 21 24  1  0
 22 25  2  0
 23 26  1  0
 23 27  1  0
 24 28  2  0
 26 29  2  0
 27 30  2  0
  6  8  1  0
 25 26  1  0
 28 30  1  0
  3 31  1  0
  4 32  1  0
  6 33  1  0
  7 34  1  0
 10 35  1  0
 10 36  1  0
 11 37  1  0
 11 38  1  0
 11 39  1  0
 12 40  1  0
 12 41  1  0
 12 42  1  0
 14 43  1  0
 16 44  1  0
 16 45  1  0
 22 46  1  0
 24 47  1  0
 25 48  1  0
 27 49  1  0
 28 50  1  0
 30 51  1  0
M  END
> <Name>
CHEMBL219207

> <IC50 nM>
3

> <Molecule_ChEMBL_ID>
CHEMBL219207

> <Smiles>
CC(C)(CC(O)(Cn1ccc(=O)c2ccccc21)C(F)(F)F)c1ccc(F)cc1O

$$$$
CHEMBL425970
  SciTegic08162514323D

 53 55  0  0  1  0            999 V2000
    2.1520   -0.5900    2.4690 F   0  0
    2.0310    0.3850    1.5120 C   0  0
    2.0020    1.6170    2.1150 F   0  0
    3.1000    0.3200    0.6560 F   0  0
    0.7360    0.1720    0.7290 C   0  0  1  0  0  0
   -0.3500    0.3870    1.6020 O   0  0
    0.5960    1.1310   -0.4530 C   0  0
    0.7230   -1.2970    0.3010 C   0  0
    0.6560    2.5390   -0.0040 N   0  0
   -0.5530   -1.6800   -0.4510 C   0  0
   -0.4840    3.2580    0.2440 C   0  0
    1.9140    3.0920    0.1560 C   0  0
   -0.2810   -3.1430   -0.3870 C   0  0
   -1.8220   -1.3090    0.3130 C   0  0
   -0.5630   -1.1720   -1.8950 C   0  0
   -0.3930    4.6190    0.6760 C   0  0
   -1.7770    2.6840    0.0800 C   0  0
    2.0960    4.3670    0.5630 C   0  0
    0.7750   -3.7130   -1.1250 C   0  0
   -1.0920   -3.9590    0.4220 C   0  0
    0.9470    5.2480    0.8560 C   0  0
   -1.5640    5.3730    0.9360 C   0  0
   -2.9430    3.4410    0.3420 C   0  0
    1.0160   -5.0960   -1.0510 C   0  0
    1.6450   -2.8650   -1.9860 C   0  0
   -0.8500   -5.3420    0.4940 C   0  0
    1.1890    6.3790    1.2090 O   0  0
   -2.8360    4.7830    0.7700 C   0  0
    0.2030   -5.9100   -0.2420 C   0  0
   -0.9960    0.9300    1.1250 H   0  0
   -0.3440    0.9630   -0.9780 H   0  0
    1.3830    0.9570   -1.1870 H   0  0
    1.6050   -1.5330   -0.2930 H   0  0
    0.8750   -1.9490    1.1600 H   0  0
    2.8050    2.5120   -0.0390 H   0  0
   -2.6970   -1.8320   -0.0740 H   0  0
   -2.0160   -0.2380    0.2420 H   0  0
   -1.7250   -1.5610    1.3690 H   0  0
   -1.4770   -0.6290   -2.1270 H   0  0
   -0.4800   -2.0040   -2.5960 H   0  0
    0.2790   -0.5020   -2.0720 H   0  0
   -1.9020    1.6620   -0.2460 H   0  0
    3.1020    4.7480    0.6720 H   0  0
   -1.9040   -3.5290    0.9900 H   0  0
   -1.4960    6.4020    1.2640 H   0  0
   -3.9180    2.9940    0.2150 H   0  0
    1.8220   -5.5390   -1.6150 H   0  0
    1.6620   -3.2720   -2.9980 H   0  0
    1.2950   -1.8340   -1.9530 H   0  0
    2.6640   -2.8830   -1.6040 H   0  0
   -1.4730   -5.9670    1.1150 H   0  0
   -3.7290    5.3590    0.9690 H   0  0
    0.3910   -6.9730   -0.1870 H   0  0
  1  2  1  0
  2  3  1  0
  2  4  1  0
  2  5  1  0
  5  6  1  0
  5  7  1  0
  5  8  1  0
  7  9  1  0
  8 10  1  0
  9 11  1  0
  9 12  1  0
 10 13  1  0
 10 14  1  0
 10 15  1  0
 11 16  2  0
 11 17  1  0
 12 18  2  0
 13 19  2  0
 13 20  1  0
 16 21  1  0
 16 22  1  0
 17 23  2  0
 19 24  1  0
 19 25  1  0
 20 26  2  0
 21 27  2  0
 22 28  2  0
 24 29  2  0
 18 21  1  0
 23 28  1  0
 26 29  1  0
  6 30  1  0
  7 31  1  0
  7 32  1  0
  8 33  1  0
  8 34  1  0
 12 35  1  0
 14 36  1  0
 14 37  1  0
 14 38  1  0
 15 39  1  0
 15 40  1  0
 15 41  1  0
 17 42  1  0
 18 43  1  0
 20 44  1  0
 22 45  1  0
 23 46  1  0
 24 47  1  0
 25 48  1  0
 25 49  1  0
 25 50  1  0
 26 51  1  0
 28 52  1  0
 29 53  1  0
M  END
> <Name>
CHEMBL425970

> <IC50 nM>
22

> <Molecule_ChEMBL_ID>
CHEMBL425970

> <Smiles>
Cc1ccccc1C(C)(C)CC(O)(Cn1ccc(=O)c2ccccc21)C(F)(F)F

$$$$
CHEMBL386916
  SciTegic08162514323D

 53 55  0  0  1  0            999 V2000
    2.4260   -4.9120   -3.4080 F   0  0
    1.4100   -4.3750   -2.7340 C   0  0
    1.6490   -3.3610   -1.7890 C   0  0
    0.1000   -4.8220   -2.9690 C   0  0
    0.5740   -2.7950   -1.0800 C   0  0
   -0.9730   -4.2560   -2.2600 C   0  0
   -0.7400   -3.2420   -1.3120 C   0  0
    0.8380   -1.7250   -0.0820 C   0  0
   -1.7540   -2.7190   -0.6520 O   0  0
    0.4120   -0.5920   -1.0180 C   0  0
    2.3200   -1.6540    0.2910 C   0  0
   -0.0720   -1.8560    1.1390 C   0  0
   -3.0620   -3.1700   -0.9730 C   0  0
    0.7810    0.7910   -0.4780 C   0  0  1  0  0  0
    2.1700    0.9710   -0.6410 O   0  0
    0.0610    1.8110   -1.3590 C   0  0
    0.4490    0.9530    1.0060 C   0  0
    0.2740    1.5060   -2.6800 F   0  0
    0.5430    3.0640   -1.0960 F   0  0
   -1.2850    1.7730   -1.0940 F   0  0
    0.5040    2.3730    1.4080 N   0  0
   -0.6370    3.1110    1.5740 C   0  0
    1.7580    2.9240    1.6090 C   0  0
   -0.5530    4.4880    1.9610 C   0  0
   -1.9340    2.5530    1.3730 C   0  0
    1.9340    4.2110    1.9770 C   0  0
    0.7810    5.1130    2.1880 C   0  0
   -1.7380    5.2500    2.1290 C   0  0
   -3.0820    3.3610    1.5570 C   0  0
    1.0160    6.2540    2.5160 O   0  0
   -2.9780    4.6860    1.9280 N   0  0
    2.6580   -3.0200   -1.6110 H   0  0
   -0.0880   -5.6000   -3.6950 H   0  0
   -1.9800   -4.6020   -2.4410 H   0  0
   -0.6540   -0.6500   -1.2300 H   0  0
    0.8260   -0.7400   -2.0140 H   0  0
    2.7150   -2.6310    0.5700 H   0  0
    2.4730   -0.9810    1.1350 H   0  0
    2.9100   -1.2810   -0.5450 H   0  0
   -0.2810   -2.8970    1.3790 H   0  0
   -1.0250   -1.3560    0.9650 H   0  0
    0.3890   -1.3970    2.0140 H   0  0
   -3.7660   -2.6820   -0.2970 H   0  0
   -3.2270   -3.0100   -2.0370 H   0  0
   -3.1090   -4.2420   -0.7830 H   0  0
    2.5860    0.7790    0.2150 H   0  0
    1.1430    0.3790    1.6210 H   0  0
   -0.5430    0.5570    1.2250 H   0  0
    2.6520    2.3300    1.4750 H   0  0
   -2.0680    1.5210    1.0820 H   0  0
    2.9380    4.5880    2.1210 H   0  0
   -1.6800    6.2890    2.4180 H   0  0
   -4.0610    2.9320    1.4040 H   0  0
  1  2  1  0
  2  3  2  0
  2  4  1  0
  3  5  1  0
  4  6  2  0
  5  7  2  0
  5  8  1  0
  7  9  1  0
  8 10  1  0
  8 11  1  0
  8 12  1  0
  9 13  1  0
 10 14  1  0
 14 15  1  0
 14 16  1  0
 14 17  1  0
 16 18  1  0
 16 19  1  0
 16 20  1  0
 17 21  1  0
 21 22  1  0
 21 23  1  0
 22 24  2  0
 22 25  1  0
 23 26  2  0
 24 27  1  0
 24 28  1  0
 25 29  2  0
 27 30  2  0
 28 31  2  0
  6  7  1  0
 26 27  1  0
 29 31  1  0
  3 32  1  0
  4 33  1  0
  6 34  1  0
 10 35  1  0
 10 36  1  0
 11 37  1  0
 11 38  1  0
 11 39  1  0
 12 40  1  0
 12 41  1  0
 12 42  1  0
 13 43  1  0
 13 44  1  0
 13 45  1  0
 15 46  1  0
 17 47  1  0
 17 48  1  0
 23 49  1  0
 25 50  1  0
 26 51  1  0
 28 52  1  0
 29 53  1  0
M  END
> <Name>
CHEMBL386916

> <IC50 nM>
34

> <Molecule_ChEMBL_ID>
CHEMBL386916

> <Smiles>
COc1ccc(F)cc1C(C)(C)CC(O)(Cn1ccc(=O)c2cnccc21)C(F)(F)F

$$$$
CHEMBL1917249
  SciTegic08162514323D

 80 86  0  0  1  0            999 V2000
    3.3280   -1.0120   -1.3610 S   0  0
    4.7930   -0.5740   -2.0940 C   0  0
    3.6370   -0.6910    0.3320 C   0  0
    5.9900   -0.1010   -1.5840 N   0  0
    4.6950   -0.7620   -3.5220 C   0  0
    2.4060   -1.0140    1.1370 C   0  0
    7.0740    0.1970   -2.3750 C   0  0
    5.8240   -0.4510   -4.3560 C   0  0
    3.5100   -1.2480   -4.1540 C   0  0
    2.2950   -2.0740    1.7030 O   0  0
    1.3160    0.0290    1.2130 C   0  0  2  0  0  0
    7.0220    0.0310   -3.7740 C   0  0
    5.7600   -0.6210   -5.7620 C   0  0
    3.4550   -1.4160   -5.5570 C   0  0
    1.1500    0.3650    2.5860 O   0  0
   -0.0330   -0.4080    0.6150 C   0  0  2  0  0  0
    1.6330    1.3150    0.4300 C   0  0
    4.5740   -1.1030   -6.3600 C   0  0
    2.2930    0.7210    3.1640 C   0  0
   -0.7520    0.9450    0.5600 C   0  0  1  0  0  0
   -0.8810   -1.3550    1.4820 C   0  0
    0.2130   -0.9750   -0.7910 C   0  0
    0.2950    1.8420   -0.0960 C   0  0
    3.3130    0.9530    2.5550 O   0  0
    2.2730    0.8220    4.6150 C   0  0
   -2.1270    0.8500   -0.1250 C   0  0  1  0  0  0
   -2.3260   -1.4960    0.9470 C   0  0  1  0  0  0
    3.4240    1.1880    5.2460 O   0  0
    1.2090    0.5960    5.4920 C   0  0
   -3.0180   -0.1230    0.6890 C   0  0  2  0  0  0
   -2.7500    2.2540   -0.1620 C   0  0
   -2.3030   -2.2890   -0.2230 O   0  0
    3.0740    1.1900    6.5660 C   0  0
    1.7340    0.8340    6.7620 C   0  0
   -4.4840   -0.2030    0.1480 C   0  0  2  0  0  0
   -4.1680    2.2330   -0.7340 C   0  0
   -5.0590    1.1930   -0.0820 C   0  0
   -5.3500   -1.0080    1.1540 C   0  0
   -4.5470   -0.8770   -1.2310 C   0  0
   -6.3240    1.5180    0.2600 C   0  0
   -6.8560   -0.8980    0.8940 C   0  0
   -7.2770    0.5450    0.8180 C   0  0
   -8.3670    0.9020    1.2050 O   0  0
    4.4730   -1.3070    0.6700 H   0  0
    3.9020    0.3580    0.4610 H   0  0
    7.9810    0.5630   -1.9160 H   0  0
    2.6170   -1.5060   -3.6060 H   0  0
    7.8890    0.2720   -4.3710 H   0  0
    6.6060   -0.3870   -6.3930 H   0  0
    2.5510   -1.7850   -6.0180 H   0  0
    2.1270    2.0410    1.0590 H   0  0
    2.2950    1.1170   -0.4020 H   0  0
    4.5240   -1.2340   -7.4300 H   0  0
   -0.9100    1.3070    1.5680 H   0  0
   -0.4000   -2.3300    1.5620 H   0  0
   -0.9360   -0.9710    2.5020 H   0  0
    0.9220   -0.3690   -1.3560 H   0  0
   -0.7170   -1.0170   -1.3590 H   0  0
    0.6130   -1.9880   -0.7340 H   0  0
    0.2520    1.7540   -1.1720 H   0  0
    0.1450    2.8830    0.1520 H   0  0
   -2.0140    0.4830   -1.1450 H   0  0
   -2.9000   -2.0640    1.6780 H   0  0
    0.1990    0.2970    5.2420 H   0  0
   -3.1000    0.3320    1.6800 H   0  0
   -2.1350    2.9300   -0.7560 H   0  0
   -2.7810    2.6720    0.8460 H   0  0
   -2.0290   -3.1820    0.0410 H   0  0
    3.7660    1.4400    7.3590 H   0  0
    1.2110    0.7600    7.7070 H   0  0
   -4.6060    3.2290   -0.6450 H   0  0
   -4.1190    2.0180   -1.8030 H   0  0
   -5.1520   -0.6540    2.1680 H   0  0
   -5.0650   -2.0600    1.1440 H   0  0
   -5.4860   -0.6440   -1.7310 H   0  0
   -3.7190   -0.5490   -1.8580 H   0  0
   -4.4810   -1.9610   -1.1330 H   0  0
   -6.6680    2.5310    0.1110 H   0  0
   -7.1130   -1.3940   -0.0410 H   0  0
   -7.4100   -1.4060    1.6850 H   0  0
  1  2  1  0
  1  3  1  0
  2  4  2  0
  2  5  1  0
  3  6  1  0
  4  7  1  0
  5  8  1  0
  5  9  2  0
  6 10  2  0
  6 11  1  0
  7 12  2  0
  8 13  2  0
  9 14  1  0
 11 15  1  0
 11 16  1  0
 11 17  1  0
 13 18  1  0
 15 19  1  0
 16 20  1  0
 16 21  1  0
 16 22  1  0
 17 23  1  0
 19 24  2  0
 19 25  1  0
 20 26  1  0
 21 27  1  0
 25 28  1  0
 25 29  2  0
 30 26  1  0
 26 31  1  0
 27 32  1  0
 28 33  1  0
 29 34  1  0
 30 35  1  0
 31 36  1  0
 35 37  1  0
 35 38  1  0
 35 39  1  0
 37 40  2  0
 38 41  1  0
 40 42  1  0
 42 43  2  0
  8 12  1  0
 14 18  2  0
 20 23  1  0
 27 30  1  0
 33 34  2  0
 36 37  1  0
 41 42  1  0
  3 44  1  0
  3 45  1  0
  7 46  1  0
  9 47  1  0
 12 48  1  0
 13 49  1  0
 14 50  1  0
 17 51  1  0
 17 52  1  0
 18 53  1  0
 20 54  1  0
 21 55  1  0
 21 56  1  0
 22 57  1  0
 22 58  1  0
 22 59  1  0
 23 60  1  0
 23 61  1  0
 26 62  1  0
 27 63  1  0
 29 64  1  0
 30 65  1  0
 31 66  1  0
 31 67  1  0
 32 68  1  0
 33 69  1  0
 34 70  1  0
 36 71  1  0
 36 72  1  0
 38 73  1  0
 38 74  1  0
 39 75  1  0
 39 76  1  0
 39 77  1  0
 40 78  1  0
 41 79  1  0
 41 80  1  0
M  END
> <Name>
CHEMBL1917249

> <IC50 nM>
15.9

> <Molecule_ChEMBL_ID>
CHEMBL1917249

> <Smiles>
C[C@]12CCC(=O)C=C1CC[C@@H]1[C@@H]2[C@@H](O)C[C@@]2(C)[C@H]1CC[C@]2(OC(=O)c1ccco1)C(=O)CSc1nccc2ccccc12

$$$$
CHEMBL1940552
  SciTegic08162514323D

 63 67  0  0  1  0            999 V2000
    4.6910   -0.2030   -2.5740 S   0  0
    4.1350   -0.1700   -4.1660 C   0  0
    3.2050   -0.2540   -1.6510 C   0  0
    2.7770   -0.1920   -4.3400 N   0  0
    4.9920   -0.1250   -5.2850 C   0  0
    3.5270   -0.2870   -0.1800 C   0  0
    2.2420   -0.1680   -5.5960 C   0  0
    4.4550   -0.1000   -6.5840 C   0  0
    4.6060    0.0780    0.2280 O   0  0
    2.4670   -0.7910    0.7690 C   0  0  2  0  0  0
    3.0610   -0.1230   -6.7380 C   0  0
    2.3300   -2.1840    0.5330 O   0  0
    1.1000   -0.0740    0.6460 C   0  0  2  0  0  0
    2.8180   -0.5760    2.2560 C   0  0
    0.4100   -0.5200    1.9430 C   0  0  1  0  0  0
    0.1860   -0.4690   -0.5290 C   0  0
    1.3670    1.4390    0.6660 C   0  0
    1.5000   -0.3010    2.9900 C   0  0
   -0.9340    0.1930    2.1720 C   0  0  1  0  0  0
   -1.2380    0.1210   -0.3990 C   0  0  1  0  0  0
   -1.8870   -0.1500    0.9920 C   0  0  2  0  0  0
   -1.5180   -0.2720    3.5190 C   0  0
   -1.1930    1.5060   -0.6840 O   0  0
   -3.3130    0.4530    1.2070 C   0  0  2  0  0  0
   -2.9240    0.2850    3.7620 C   0  0
   -3.8240    0.0060    2.5780 C   0  0
   -4.2500    0.0600    0.0680 C   0  0
   -3.2830    1.9880    1.2380 C   0  0
   -5.0080   -0.6170    2.7500 C   0  0
   -5.4260   -0.5700    0.2660 C   0  0
   -5.8810   -0.9240    1.6110 C   0  0
   -6.9510   -1.4610    1.7810 O   0  0
    2.6050    0.6270   -1.8790 H   0  0
    2.6390   -1.1450   -1.9260 H   0  0
    6.0630   -0.1090   -5.1450 H   0  0
    1.1680   -0.1840   -5.7130 H   0  0
    5.1040   -0.0670   -7.4460 H   0  0
    2.6210   -0.1040   -7.7250 H   0  0
    2.0210   -2.2890   -0.3810 H   0  0
    3.3420   -1.4180    2.6850 H   0  0
    3.4710    0.2770    2.3770 H   0  0
    0.2110   -1.5840    1.8960 H   0  0
    0.6430   -0.1800   -1.4770 H   0  0
    0.0880   -1.5550   -0.5680 H   0  0
    0.4590    1.9880    0.9160 H   0  0
    2.1430    1.6840    1.3910 H   0  0
    1.7050    1.7830   -0.3130 H   0  0
    1.3710   -0.9490    3.8440 H   0  0
    1.4820    0.7170    3.3550 H   0  0
   -0.7770    1.2710    2.2130 H   0  0
   -1.8520   -0.3220   -1.1820 H   0  0
   -2.0180   -1.2340    1.0230 H   0  0
   -0.8630    0.0270    4.3380 H   0  0
   -1.5590   -1.3630    3.5410 H   0  0
   -0.9450    1.6000   -1.6170 H   0  0
   -2.8710    1.3610    3.9260 H   0  0
   -3.3340   -0.1490    4.6760 H   0  0
   -3.9710    0.2950   -0.9470 H   0  0
   -4.1860    2.4020    1.6870 H   0  0
   -3.1970    2.3930    0.2300 H   0  0
   -2.4300    2.3460    1.8140 H   0  0
   -5.3300   -0.9000    3.7420 H   0  0
   -6.0410   -0.8170   -0.5880 H   0  0
  1  2  1  0
  1  3  1  0
  2  4  2  0
  2  5  1  0
  3  6  1  0
  4  7  1  0
  5  8  2  0
  6  9  2  0
  6 10  1  0
  7 11  2  0
 10 12  1  0
 10 13  1  0
 10 14  1  0
 13 15  1  0
 13 16  1  0
 13 17  1  0
 14 18  1  0
 15 19  1  0
 16 20  1  0
 21 19  1  0
 19 22  1  0
 20 23  1  0
 21 24  1  0
 22 25  1  0
 24 26  1  0
 24 27  1  0
 24 28  1  0
 26 29  2  0
 27 30  2  0
 29 31  1  0
 31 32  2  0
  8 11  1  0
 15 18  1  0
 20 21  1  0
 25 26  1  0
 30 31  1  0
  3 33  1  0
  3 34  1  0
  5 35  1  0
  7 36  1  0
  8 37  1  0
 11 38  1  0
 12 39  1  0
 14 40  1  0
 14 41  1  0
 15 42  1  0
 16 43  1  0
 16 44  1  0
 17 45  1  0
 17 46  1  0
 17 47  1  0
 18 48  1  0
 18 49  1  0
 19 50  1  0
 20 51  1  0
 21 52  1  0
 22 53  1  0
 22 54  1  0
 23 55  1  0
 25 56  1  0
 25 57  1  0
 27 58  1  0
 28 59  1  0
 28 60  1  0
 28 61  1  0
 29 62  1  0
 30 63  1  0
M  END
> <Name>
CHEMBL1940552

> <IC50 nM>
43.8

> <Molecule_ChEMBL_ID>
CHEMBL1940552

> <Smiles>
C[C@]12C=CC(=O)C=C1CC[C@@H]1[C@@H]2[C@@H](O)C[C@@]2(C)[C@H]1CC[C@]2(O)C(=O)CSc1ccccn1

$$$$
CHEMBL1940691
  SciTegic08162514323D

 72 77  0  0  1  0            999 V2000
    4.1600    1.7770   -0.3460 S   0  0
    5.6390    1.0660    0.0640 C   0  0
    3.0490    0.4280   -0.2520 C   0  0
    6.0700   -0.2010    0.4140 N   0  0
    6.5980    2.1170    0.0080 C   0  0
    1.6600    0.8970   -0.5960 C   0  0
    7.3910   -0.4780    0.7050 C   0  0
    7.9630    1.8730    0.3010 C   0  0
    1.4280    2.0680   -0.7830 O   0  0
    0.5640   -0.1410   -0.6990 C   0  0  2  0  0  0
    8.3690    0.5630    0.6540 C   0  0
    7.7970   -1.7910    1.0580 C   0  0
    0.6700   -0.7340   -1.9850 O   0  0
   -0.8610    0.4140   -0.4610 C   0  0  2  0  0  0
    0.6350   -1.2280    0.3980 C   0  0  1  0  0  0
    9.7290    0.2850    0.9510 C   0  0
    9.1520   -2.0620    1.3550 C   0  0
   -1.6820   -0.8790   -0.3320 C   0  0  1  0  0  0
   -1.5180    1.2400   -1.5800 C   0  0
   -0.8260    1.1900    0.8670 C   0  0
   -0.8010   -1.7600    0.5560 C   0  0
    1.6480   -2.3480    0.1660 C   0  0
   10.1150   -1.0270    1.3030 C   0  0
   -3.1090   -0.6050    0.1700 C   0  0  1  0  0  0
   -2.9960    1.5760   -1.2560 C   0  0  1  0  0  0
   -3.8520    0.3420   -0.8130 C   0  0  2  0  0  0
   -3.8810   -1.9320    0.3100 C   0  0
   -3.0310    2.6080   -0.2890 O   0  0
   -5.2930    0.6660   -0.2830 C   0  0  2  0  0  0
   -5.3150   -1.7050    0.8080 C   0  0
   -6.0510   -0.6270    0.0330 C   0  0
   -6.0430    1.5660   -1.2600 C   0  0
   -5.2500    1.4240    1.0510 C   0  0
   -7.3360   -0.8140   -0.3340 C   0  0
   -7.3260    1.3540   -1.6120 C   0  0
   -8.0670    0.1990   -1.1020 C   0  0
   -9.2520    0.0840   -1.3130 O   0  0
    3.3610   -0.3500   -0.9470 H   0  0
    3.0610    0.0180    0.7580 H   0  0
    6.3050    3.1230   -0.2600 H   0  0
    8.6720    2.6880    0.2500 H   0  0
    7.0780   -2.5960    1.1050 H   0  0
    1.5820   -1.0530   -2.0780 H   0  0
    0.9020   -0.7560    1.3340 H   0  0
   10.4770    1.0650    0.9160 H   0  0
    9.4550   -3.0640    1.6230 H   0  0
   -1.7540   -1.3530   -1.3030 H   0  0
   -1.4940    0.6780   -2.5140 H   0  0
   -0.9470    2.1540   -1.7640 H   0  0
   -1.8300    1.3990    1.2400 H   0  0
   -0.3130    2.1430    0.7420 H   0  0
   -0.2990    0.6210    1.6310 H   0  0
   -0.8980   -2.7990    0.2730 H   0  0
   -1.1090   -1.6860    1.5900 H   0  0
    1.5590   -3.1170    0.9330 H   0  0
    1.5020   -2.8030   -0.8150 H   0  0
    2.6660   -1.9590    0.2030 H   0  0
   11.1490   -1.2440    1.5310 H   0  0
   -3.0590   -0.1330    1.1520 H   0  0
   -3.4320    2.0040   -2.1600 H   0  0
   -3.9860   -0.2340   -1.7330 H   0  0
   -3.9100   -2.4530   -0.6490 H   0  0
   -3.3690   -2.6000    1.0040 H   0  0
   -3.4770    3.3670   -0.6970 H   0  0
   -5.8630   -2.6480    0.7690 H   0  0
   -5.2850   -1.4140    1.8590 H   0  0
   -5.5370    2.4200   -1.6960 H   0  0
   -6.1970    1.3560    1.5860 H   0  0
   -5.0330    2.4790    0.8870 H   0  0
   -4.4710    1.0220    1.6970 H   0  0
   -7.8440   -1.7280   -0.0630 H   0  0
   -7.8090    2.0510   -2.2810 H   0  0
  1  2  1  0
  1  3  1  0
  2  4  2  0
  2  5  1  0
  3  6  1  0
  4  7  1  0
  5  8  2  0
  6  9  2  0
  6 10  1  0
  7 11  1  0
  7 12  2  0
 10 13  1  0
 10 14  1  0
 10 15  1  0
 11 16  2  0
 12 17  1  0
 14 18  1  0
 14 19  1  0
 14 20  1  0
 15 21  1  0
 15 22  1  0
 16 23  1  0
 18 24  1  0
 19 25  1  0
 26 24  1  0
 24 27  1  0
 25 28  1  0
 26 29  1  0
 27 30  1  0
 29 31  1  0
 29 32  1  0
 29 33  1  0
 31 34  2  0
 32 35  2  0
 34 36  1  0
 36 37  2  0
  8 11  1  0
 17 23  2  0
 18 21  1  0
 25 26  1  0
 30 31  1  0
 35 36  1  0
  3 38  1  0
  3 39  1  0
  5 40  1  0
  8 41  1  0
 12 42  1  0
 13 43  1  0
 15 44  1  0
 16 45  1  0
 17 46  1  0
 18 47  1  0
 19 48  1  0
 19 49  1  0
 20 50  1  0
 20 51  1  0
 20 52  1  0
 21 53  1  0
 21 54  1  0
 22 55  1  0
 22 56  1  0
 22 57  1  0
 23 58  1  0
 24 59  1  0
 25 60  1  0
 26 61  1  0
 27 62  1  0
 27 63  1  0
 28 64  1  0
 30 65  1  0
 30 66  1  0
 32 67  1  0
 33 68  1  0
 33 69  1  0
 33 70  1  0
 34 71  1  0
 35 72  1  0
M  END
> <Name>
CHEMBL1940691

> <IC50 nM>
46.5

> <Molecule_ChEMBL_ID>
CHEMBL1940691

> <Smiles>
C[C@@H]1C[C@H]2[C@@H]3CCC4=CC(=O)C=C[C@]4(C)[C@H]3[C@@H](O)C[C@]2(C)[C@@]1(O)C(=O)CSc1ccc2ccccc2n1

$$$$
CHEMBL1911548
  SciTegic08162514323D

 55 57  0  0  1  0            999 V2000
    6.2460    0.8050    2.9820 F   0  0
    5.5510    0.5960    1.8670 C   0  0
    4.2790    0.0020    1.9300 C   0  0
    6.0900    0.9710    0.6230 C   0  0
    3.5450   -0.2210    0.7500 C   0  0
    5.3570    0.7500   -0.5550 C   0  0
    4.0840    0.1540   -0.4960 C   0  0
    2.2010   -0.8500    0.8280 C   0  0
    3.4060   -0.0470   -1.6090 O   0  0
    1.4490    0.4800    0.7810 C   0  0
    2.0040   -1.5920    2.1500 C   0  0
    1.9200   -1.7300   -0.3910 C   0  0
    4.0120    0.3240   -2.8380 C   0  0
   -0.0660    0.2990    0.6990 C   0  0  1  0  0  0
   -0.3690   -1.0370    1.0270 O   0  0
   -0.6720    1.2050    1.7730 C   0  0
   -0.6210    0.5880   -0.6950 C   0  0
   -2.0160    0.9530    1.8790 F   0  0
   -0.4790    2.5180    1.4260 F   0  0
   -0.0650    0.9550    2.9770 F   0  0
   -2.1350    0.5590   -0.7010 C   0  0
   -2.9360    1.7250   -0.7770 N   0  0
   -2.9880   -0.5590   -0.6370 C   0  0
   -4.2580    1.3110   -0.7580 C   0  0
   -4.2460   -0.0610   -0.6740 C   0  0
   -5.4690    2.0390   -0.8090 C   0  0
   -5.4530   -0.8050   -0.6330 C   0  0
   -6.6920    1.3220   -0.7700 C   0  0
   -6.6840   -0.0980   -0.6820 C   0  0
   -5.4530   -2.2750   -0.5450 C   0  0
    3.8670   -0.2870    2.8870 H   0  0
    7.0660    1.4300    0.5700 H   0  0
    5.7730    1.0390   -1.5080 H   0  0
    1.8090    1.0960   -0.0430 H   0  0
    1.7170    1.1050    1.6330 H   0  0
    2.9100   -2.1060    2.4670 H   0  0
    1.2130   -2.3380    2.0610 H   0  0
    1.7190   -0.9000    2.9430 H   0  0
    1.2050   -2.5220   -0.1620 H   0  0
    2.8360   -2.2010   -0.7440 H   0  0
    1.5120   -1.1370   -1.2070 H   0  0
    4.1500    1.4060   -2.8360 H   0  0
    4.9120   -0.2770   -2.9710 H   0  0
    3.3240    0.0780   -3.6470 H   0  0
   -0.6020   -1.4900    0.2010 H   0  0
   -0.2420   -0.1370   -1.4180 H   0  0
   -0.2750    1.5570   -1.0570 H   0  0
   -2.6080    2.6620   -0.8320 H   0  0
   -2.6880   -1.5980   -0.5720 H   0  0
   -5.4650    3.1170   -0.8750 H   0  0
   -7.6310    1.8550   -0.8070 H   0  0
   -7.6210   -0.6350   -0.6540 H   0  0
   -4.4630   -2.7290   -0.6050 H   0  0
   -6.0590   -2.6890   -1.3500 H   0  0
   -5.9030   -2.5820    0.4000 H   0  0
  1  2  1  0
  2  3  2  0
  2  4  1  0
  3  5  1  0
  4  6  2  0
  5  7  2  0
  5  8  1  0
  7  9  1  0
  8 10  1  0
  8 11  1  0
  8 12  1  0
  9 13  1  0
 10 14  1  0
 14 15  1  0
 14 16  1  0
 14 17  1  0
 16 18  1  0
 16 19  1  0
 16 20  1  0
 17 21  1  0
 21 22  1  0
 21 23  2  0
 22 24  1  0
 23 25  1  0
 24 26  1  0
 25 27  1  0
 26 28  2  0
 27 29  2  0
 27 30  1  0
  6  7  1  0
 24 25  2  0
 28 29  1  0
  3 31  1  0
  4 32  1  0
  6 33  1  0
 10 34  1  0
 10 35  1  0
 11 36  1  0
 11 37  1  0
 11 38  1  0
 12 39  1  0
 12 40  1  0
 12 41  1  0
 13 42  1  0
 13 43  1  0
 13 44  1  0
 15 45  1  0
 17 46  1  0
 17 47  1  0
 22 48  1  0
 23 49  1  0
 26 50  1  0
 28 51  1  0
 29 52  1  0
 30 53  1  0
 30 54  1  0
 30 55  1  0
M  END
> <Name>
CHEMBL1911548

> <IC50 nM>
30

> <Molecule_ChEMBL_ID>
CHEMBL1911548

> <Smiles>
COc1ccc(F)cc1C(C)(C)CC(O)(Cc1cc2c(C)cccc2[nH]1)C(F)(F)F

$$$$
CHEMBL1911549
  SciTegic08162514323D

 55 57  0  0  1  0            999 V2000
    5.4380    2.7010   -2.1150 F   0  0
    5.0040    2.0900   -1.0160 C   0  0
    3.9750    1.1370   -1.1000 C   0  0
    5.5720    2.4000    0.2320 C   0  0
    3.5160    0.4900    0.0620 C   0  0
    5.1130    1.7560    1.3920 C   0  0
    4.0860    0.8010    1.3140 C   0  0
    2.4260   -0.5180   -0.0370 C   0  0
    3.6620    0.2010    2.4100 O   0  0
    1.3400    0.4390    0.4570 C   0  0
    2.6560   -1.6910    0.9140 C   0  0
    2.2050   -0.9630   -1.4850 C   0  0
    4.2420    0.5880    3.6460 C   0  0
   -0.0680   -0.1370    0.3070 C   0  0  1  0  0  0
   -0.0180   -1.5120    0.6110 O   0  0
   -0.9370    0.5550    1.3550 C   0  0
   -0.6190    0.0200   -1.1110 C   0  0
   -2.1640   -0.0530    1.4060 F   0  0
   -1.0940    1.8750    1.0210 F   0  0
   -0.3320    0.4630    2.5840 F   0  0
   -2.1330   -0.0100   -1.1170 C   0  0
   -2.9340    1.1560   -1.1920 N   0  0
   -2.9860   -1.1270   -1.0530 C   0  0
   -4.2560    0.7420   -1.1740 C   0  0
   -4.2440   -0.6290   -1.0900 C   0  0
   -5.4670    1.4710   -1.2230 C   0  0
   -5.4510   -1.3730   -1.0490 C   0  0
   -6.6900    0.7540   -1.1860 C   0  0
   -6.6820   -0.6660   -1.0980 C   0  0
   -5.4510   -2.8440   -0.9590 C   0  0
   -4.8540   -3.2300    0.2130 F   0  0
   -4.7580   -3.3670   -2.0200 F   0  0
   -6.7420   -3.3050   -0.9880 F   0  0
    3.5370    0.9000   -2.0590 H   0  0
    6.3630    3.1330    0.3030 H   0  0
    5.5550    1.9960    2.3500 H   0  0
    1.4180    1.4040   -0.0450 H   0  0
    1.5270    0.7340    1.4900 H   0  0
    3.7170   -1.8960    1.0550 H   0  0
    2.1900   -2.5980    0.5270 H   0  0
    2.2230   -1.4840    1.8920 H   0  0
    3.1350   -1.2750   -1.9590 H   0  0
    1.7810   -0.1520   -2.0760 H   0  0
    1.5120   -1.8030   -1.5260 H   0  0
    5.2990    0.3240    3.6250 H   0  0
    4.0120    1.6390    3.8180 H   0  0
    3.7700    0.0100    4.4410 H   0  0
   -0.8830   -1.8870    0.3900 H   0  0
   -0.2380   -0.7700   -1.7620 H   0  0
   -0.2710    0.9490   -1.5610 H   0  0
   -2.6050    2.0940   -1.2480 H   0  0
   -2.6860   -2.1660   -0.9880 H   0  0
   -5.4630    2.5490   -1.2890 H   0  0
   -7.6290    1.2850   -1.2230 H   0  0
   -7.6190   -1.2030   -1.0690 H   0  0
  1  2  1  0
  2  3  2  0
  2  4  1  0
  3  5  1  0
  4  6  2  0
  5  7  2  0
  5  8  1  0
  7  9  1  0
  8 10  1  0
  8 11  1  0
  8 12  1  0
  9 13  1  0
 10 14  1  0
 14 15  1  0
 14 16  1  0
 14 17  1  0
 16 18  1  0
 16 19  1  0
 16 20  1  0
 17 21  1  0
 21 22  1  0
 21 23  2  0
 22 24  1  0
 23 25  1  0
 24 26  1  0
 25 27  1  0
 26 28  2  0
 27 29  2  0
 27 30  1  0
 30 31  1  0
 30 32  1  0
 30 33  1  0
  6  7  1  0
 24 25  2  0
 28 29  1  0
  3 34  1  0
  4 35  1  0
  6 36  1  0
 10 37  1  0
 10 38  1  0
 11 39  1  0
 11 40  1  0
 11 41  1  0
 12 42  1  0
 12 43  1  0
 12 44  1  0
 13 45  1  0
 13 46  1  0
 13 47  1  0
 15 48  1  0
 17 49  1  0
 17 50  1  0
 22 51  1  0
 23 52  1  0
 26 53  1  0
 28 54  1  0
 29 55  1  0
M  END
> <Name>
CHEMBL1911549

> <IC50 nM>
160

> <Molecule_ChEMBL_ID>
CHEMBL1911549

> <Smiles>
COc1ccc(F)cc1C(C)(C)CC(O)(Cc1cc2c(C(F)(F)F)cccc2[nH]1)C(F)(F)F

$$$$
CHEMBL1911651
  SciTegic08162514323D

 52 54  0  0  1  0            999 V2000
    2.7070    0.4320   -5.4260 F   0  0
    1.7720    0.4160   -4.4810 C   0  0
    2.0330   -0.1970   -3.2420 C   0  0
    0.5220    1.0120   -4.7170 C   0  0
    1.0450   -0.2130   -2.2400 C   0  0
   -0.4650    0.9940   -3.7170 C   0  0
   -0.2090    0.3850   -2.4790 C   0  0
    1.3340   -0.8630   -0.9340 C   0  0
   -1.1420    0.3750   -1.5470 O   0  0
    1.5100    0.4590   -0.1880 C   0  0
    2.6190   -1.6880   -0.9860 C   0  0
    0.1370   -1.6700   -0.4320 C   0  0
   -2.3910    0.9800   -1.8500 C   0  0
    2.2360    0.2890    1.1460 C   0  0  1  0  0  0
    3.5530   -0.1390    0.8810 O   0  0
    2.3070    1.6780    1.7850 C   0  0
    1.5720   -0.7440    2.0570 C   0  0
    3.6190    2.0510    1.9240 F   0  0
    1.7090    1.6450    3.0180 F   0  0
    1.6560    2.5820    0.9840 F   0  0
    0.0880   -0.4770    2.1970 C   0  0
   -0.8530   -1.4770    2.5490 N   0  0
   -0.6010    0.7360    2.0180 C   0  0
   -2.0980   -0.8670    2.5800 C   0  0
   -1.9000    0.4510    2.2580 C   0  0
   -3.3850   -1.3730    2.8670 C   0  0
   -2.9780    1.3650    2.1990 C   0  0
   -4.4880   -0.4800    2.8160 C   0  0
   -4.2850    0.8870    2.4820 C   0  0
   -5.7150   -0.9260    3.0820 F   0  0
    2.9960   -0.6540   -3.0610 H   0  0
    0.3170    1.4820   -5.6680 H   0  0
   -1.4260    1.4550   -3.9040 H   0  0
    0.5470    0.9490   -0.0410 H   0  0
    2.0180    1.1910   -0.8130 H   0  0
    2.5740   -2.4630   -1.7520 H   0  0
    2.8070   -2.1740   -0.0290 H   0  0
    3.4770   -1.0510   -1.2090 H   0  0
   -0.3550   -2.2150   -1.2380 H   0  0
   -0.6050   -1.0160    0.0270 H   0  0
    0.4490   -2.3980    0.3180 H   0  0
   -2.2250    2.0450   -2.0140 H   0  0
   -2.8460    0.4300   -2.6740 H   0  0
   -3.0410    0.8750   -0.9810 H   0  0
    3.9470   -0.4000    1.7290 H   0  0
    2.0350   -0.7460    3.0430 H   0  0
    1.7250   -1.7520    1.6700 H   0  0
   -0.6580   -2.4320    2.7360 H   0  0
   -0.1740    1.6930    1.7440 H   0  0
   -3.5250   -2.4140    3.1190 H   0  0
   -2.8220    2.4040    1.9450 H   0  0
   -5.1250    1.5660    2.4450 H   0  0
  1  2  1  0
  2  3  2  0
  2  4  1  0
  3  5  1  0
  4  6  2  0
  5  7  2  0
  5  8  1  0
  7  9  1  0
  8 10  1  0
  8 11  1  0
  8 12  1  0
  9 13  1  0
 10 14  1  0
 14 15  1  0
 14 16  1  0
 14 17  1  0
 16 18  1  0
 16 19  1  0
 16 20  1  0
 17 21  1  0
 21 22  1  0
 21 23  2  0
 22 24  1  0
 23 25  1  0
 24 26  1  0
 25 27  1  0
 26 28  2  0
 27 29  2  0
 28 30  1  0
  6  7  1  0
 24 25  2  0
 28 29  1  0
  3 31  1  0
  4 32  1  0
  6 33  1  0
 10 34  1  0
 10 35  1  0
 11 36  1  0
 11 37  1  0
 11 38  1  0
 12 39  1  0
 12 40  1  0
 12 41  1  0
 13 42  1  0
 13 43  1  0
 13 44  1  0
 15 45  1  0
 17 46  1  0
 17 47  1  0
 22 48  1  0
 23 49  1  0
 26 50  1  0
 27 51  1  0
 29 52  1  0
M  END
> <Name>
CHEMBL1911651

> <IC50 nM>
30

> <Molecule_ChEMBL_ID>
CHEMBL1911651

> <Smiles>
COc1ccc(F)cc1C(C)(C)CC(O)(Cc1cc2ccc(F)cc2[nH]1)C(F)(F)F

$$$$
CHEMBL1929036
  SciTegic08162514323D

 41 44  0  0  0  0            999 V2000
    2.4670   -5.0270    0.7910 F   0  0
    2.3160   -4.4280   -0.4340 C   0  0
    3.5390   -4.3220   -1.0430 F   0  0
    1.4800   -5.1860   -1.2110 F   0  0
    1.7210   -3.0490   -0.2500 C   0  0
    2.3050   -2.0590    0.4730 N   0  0
    0.5120   -2.5220   -0.7540 C   0  0
    1.5680   -0.9410    0.4710 N   0  0
    0.4730   -1.2010   -0.2690 C   0  0
    1.8850    0.2190    1.1020 C   0  0
   -0.6600   -0.3010   -0.5840 C   0  0
    3.0960    0.8960    0.8240 C   0  0
    0.9900    0.7520    2.0510 C   0  0
   -1.9710   -0.8180   -0.5120 C   0  0
   -0.3770    1.0330   -0.9410 C   0  0
    3.3950    2.0960    1.4960 C   0  0
    4.0720    0.3690   -0.1720 C   0  0
    1.2970    1.9490    2.7170 C   0  0
   -3.0550    0.0490   -0.8110 C   0  0
   -1.4630    1.8910   -1.2340 C   0  0
    2.4980    2.6210    2.4400 C   0  0
   -4.3300   -0.4060   -0.7750 N   0  0
   -2.7950    1.4100   -1.1620 C   0  0
   -5.4020    0.4470   -0.9060 C   0  0
   -3.8110    2.2540   -1.4390 O   0  0
   -6.5310    0.0140   -0.9100 O   0  0
   -5.1510    1.9370   -1.0370 C   0  0
   -0.2170   -3.0270   -1.3730 H   0  0
    0.0590    0.2520    2.2790 H   0  0
   -2.1350   -1.8520   -0.2360 H   0  0
    0.6410    1.3950   -0.9920 H   0  0
    4.3160    2.6190    1.2870 H   0  0
    4.7810    1.1540   -0.4360 H   0  0
    4.5590   -0.5200    0.2310 H   0  0
    3.5450    0.0780   -1.0800 H   0  0
    0.6070    2.3550    3.4430 H   0  0
   -1.2740    2.9160   -1.5140 H   0  0
    2.7320    3.5430    2.9510 H   0  0
   -4.5120   -1.3870   -0.6600 H   0  0
   -5.8420    2.3870   -1.7500 H   0  0
   -5.3280    2.4100   -0.0700 H   0  0
  1  2  1  0
  2  3  1  0
  2  4  1  0
  2  5  1  0
  5  6  2  0
  5  7  1  0
  6  8  1  0
  7  9  2  0
  8 10  1  0
  9 11  1  0
 10 12  2  0
 10 13  1  0
 11 14  2  0
 11 15  1  0
 12 16  1  0
 12 17  1  0
 13 18  2  0
 14 19  1  0
 15 20  2  0
 16 21  2  0
 19 22  1  0
 19 23  2  0
 22 24  1  0
 23 25  1  0
 24 26  2  0
 24 27  1  0
  8  9  1  0
 18 21  1  0
 20 23  1  0
 25 27  1  0
  7 28  1  0
 13 29  1  0
 14 30  1  0
 15 31  1  0
 16 32  1  0
 17 33  1  0
 17 34  1  0
 17 35  1  0
 18 36  1  0
 20 37  1  0
 21 38  1  0
 22 39  1  0
 27 40  1  0
 27 41  1  0
M  END
> <Name>
CHEMBL1929036

> <IC50 nM>
2500

> <Molecule_ChEMBL_ID>
CHEMBL1929036

> <Smiles>
Cc1ccccc1-n1nc(C(F)(F)F)cc1-c1ccc2c(c1)NC(=O)CO2

$$$$
CHEMBL461012
  SciTegic08162514323D

 58 60  0  0  1  0            999 V2000
    1.0490   -3.4140    0.1640 Cl  0  0
    2.6210   -4.0290   -0.1640 C   0  0
    3.7500   -3.1800   -0.2380 C   0  0
    2.7730   -5.4140   -0.3630 C   0  0
    5.0230   -3.7320   -0.5120 C   0  0
    3.5980   -1.7030   -0.0250 C   0  0
    4.0370   -5.9570   -0.6370 C   0  0
    6.4320   -2.7460   -0.6090 Cl  0  0
    5.1600   -5.1170   -0.7090 C   0  0
    3.3960   -1.2500    1.0780 O   0  0
    3.6890   -0.8710   -1.1050 N   0  0
    3.6890    0.5840   -0.8980 C   0  0
    3.7910   -1.3960   -2.4750 C   0  0
    2.2810    1.1580   -1.0470 C   0  0  2  0  0  0
    2.5620   -2.2340   -2.8320 C   0  0
    1.9240    1.1020   -2.4080 O   0  0
    2.3630    2.6290   -0.6350 C   0  0
    1.2380    0.3790   -0.2440 C   0  0
    3.4360    3.2170   -1.2560 F   0  0
    2.5210    2.7150    0.7250 F   0  0
    1.2110    3.2720   -1.0040 F   0  0
   -0.0980    0.9750   -0.3980 N   0  0
   -0.9380    1.0250    0.6780 C   0  0
   -0.5860    0.5860    1.7480 O   0  0
   -2.2620    1.6130    0.5290 C   0  0
   -3.2620    1.7010    1.5270 C   0  0
   -2.7760    2.1990   -0.6460 C   0  0
   -4.3170    2.3200    0.9400 N   0  0
   -3.1490    1.2110    2.9140 N   0  0
   -4.0180    2.6060   -0.3320 N   0  0
   -5.5060    2.6170    1.5270 C   0  0
   -5.5350    3.3160    2.7500 C   0  0
   -6.7130    2.2290    0.9160 C   0  0
   -6.7660    3.6230    3.3580 C   0  0
   -7.9420    2.5370    1.5240 C   0  0
   -7.9690    3.2330    2.7440 C   0  0
   -9.1330    3.5240    3.3200 F   0  0
    1.9200   -6.0760   -0.3090 H   0  0
    4.1480   -7.0200   -0.7890 H   0  0
    6.1270   -5.5530   -0.9220 H   0  0
    4.3730    1.0470   -1.6090 H   0  0
    4.0940    0.8050    0.0900 H   0  0
    3.9040   -0.5640   -3.1700 H   0  0
    4.7010   -1.9880   -2.5660 H   0  0
    2.3440   -2.1620   -3.8960 H   0  0
    2.7230   -3.2810   -2.5700 H   0  0
    1.6860   -1.8850   -2.2870 H   0  0
    1.6030    0.2010   -2.5840 H   0  0
    1.5020    0.3590    0.8130 H   0  0
    1.2070   -0.6620   -0.5640 H   0  0
   -0.3890    1.3380   -1.2830 H   0  0
   -2.3070    2.3180   -1.6150 H   0  0
   -2.3180    0.7720    3.2540 H   0  0
   -3.9180    1.3150    3.5450 H   0  0
   -4.6190    3.6230    3.2360 H   0  0
   -6.7130    1.6930   -0.0230 H   0  0
   -6.7810    4.1580    4.2950 H   0  0
   -8.8650    2.2360    1.0510 H   0  0
  1  2  1  0
  2  3  2  0
  2  4  1  0
  3  5  1  0
  3  6  1  0
  4  7  2  0
  5  8  1  0
  5  9  2  0
  6 10  2  0
  6 11  1  0
 11 12  1  0
 11 13  1  0
 12 14  1  0
 13 15  1  0
 14 16  1  0
 14 17  1  0
 14 18  1  0
 17 19  1  0
 17 20  1  0
 17 21  1  0
 18 22  1  0
 22 23  1  0
 23 24  2  0
 23 25  1  0
 25 26  2  0
 25 27  1  0
 26 28  1  0
 26 29  1  0
 27 30  2  0
 28 31  1  0
 31 32  2  0
 31 33  1  0
 32 34  1  0
 33 35  2  0
 34 36  2  0
 36 37  1  0
  7  9  1  0
 28 30  1  0
 35 36  1  0
  4 38  1  0
  7 39  1  0
  9 40  1  0
 12 41  1  0
 12 42  1  0
 13 43  1  0
 13 44  1  0
 15 45  1  0
 15 46  1  0
 15 47  1  0
 16 48  1  0
 18 49  1  0
 18 50  1  0
 22 51  1  0
 27 52  1  0
 29 53  1  0
 29 54  1  0
 32 55  1  0
 33 56  1  0
 34 57  1  0
 35 58  1  0
M  END
> <Name>
CHEMBL461012

> <IC50 nM>
3.16

> <Molecule_ChEMBL_ID>
CHEMBL461012

> <Smiles>
CCN(CC(O)(CNC(=O)c1cnn(-c2ccc(F)cc2)c1N)C(F)(F)F)C(=O)c1c(Cl)cccc1Cl

$$$$
CHEMBL520750
  SciTegic08162514323D

 58 60  0  0  1  0            999 V2000
   -0.0040    4.5550    1.0880 Cl  0  0
   -1.6540    4.1780    0.7580 C   0  0
   -2.5180    5.1840    0.2710 C   0  0
   -2.1540    2.8710    0.9670 C   0  0
   -2.0820    6.4260    0.0630 F   0  0
   -3.8630    4.8870   -0.0040 C   0  0
   -1.2770    1.7730    1.4840 C   0  0
   -3.5040    2.5840    0.6890 C   0  0
   -4.3560    3.5880    0.2050 C   0  0
   -0.3520    1.3570    0.8280 O   0  0
   -1.5430    1.2460    2.7150 N   0  0
   -0.7890    0.0700    3.1740 C   0  0
   -2.5680    1.8240    3.5980 C   0  0
   -1.4790   -1.2250    2.7440 C   0  0  2  0  0  0
   -2.1060    3.1640    4.1680 C   0  0
   -2.8150   -1.1840    3.1910 O   0  0
   -0.7660   -2.3630    3.4750 C   0  0
   -1.4900   -1.4120    1.2270 C   0  0
   -1.1290   -2.3570    4.7950 F   0  0
    0.5920   -2.1900    3.3730 F   0  0
   -1.1170   -3.5610    2.9080 F   0  0
   -0.1210   -1.5060    0.6970 N   0  0
    0.0680   -1.7230   -0.6390 C   0  0
   -0.8810   -1.8340   -1.3790 O   0  0
    1.4240   -1.8150   -1.1660 C   0  0
    1.7890   -2.0000   -2.5220 C   0  0
    2.6110   -1.7360   -0.4080 C   0  0
    3.1460   -2.0250   -2.5370 N   0  0
    0.8590   -2.1330   -3.6600 N   0  0
    3.6110   -1.8710   -1.2950 N   0  0
    3.9360   -2.1840   -3.6330 C   0  0
    3.7250   -1.3890   -4.7750 C   0  0
    4.9670   -3.1430   -3.6290 C   0  0
    4.5410   -1.5530   -5.9080 C   0  0
    5.7810   -3.3050   -4.7620 C   0  0
    5.5700   -2.5100   -5.9020 C   0  0
    6.3420   -2.6640   -6.9750 F   0  0
   -4.5250    5.6540   -0.3750 H   0  0
   -3.8950    1.5900    0.8460 H   0  0
   -5.3910    3.3610   -0.0080 H   0  0
   -0.6880    0.1090    4.2580 H   0  0
    0.2250    0.1170    2.7750 H   0  0
   -3.4960    1.9430    3.0390 H   0  0
   -2.7890    1.1190    4.3990 H   0  0
   -2.8990    3.6290    4.7540 H   0  0
   -1.2270    3.0310    4.7990 H   0  0
   -1.8380    3.8540    3.3650 H   0  0
   -3.3400   -0.7730    2.4880 H   0  0
   -2.0060   -0.5860    0.7400 H   0  0
   -2.0410   -2.3130    0.9530 H   0  0
    0.6640   -1.4140    1.3090 H   0  0
    2.7360   -1.6000    0.6580 H   0  0
   -0.1330   -2.0920   -3.5430 H   0  0
    1.2170   -2.2680   -4.5840 H   0  0
    2.9380   -0.6470   -4.8010 H   0  0
    5.1470   -3.7620   -2.7620 H   0  0
    4.3730   -0.9400   -6.7830 H   0  0
    6.5720   -4.0410   -4.7520 H   0  0
  1  2  1  0
  2  3  2  0
  2  4  1  0
  3  5  1  0
  3  6  1  0
  4  7  1  0
  4  8  2  0
  6  9  2  0
  7 10  2  0
  7 11  1  0
 11 12  1  0
 11 13  1  0
 12 14  1  0
 13 15  1  0
 14 16  1  0
 14 17  1  0
 14 18  1  0
 17 19  1  0
 17 20  1  0
 17 21  1  0
 18 22  1  0
 22 23  1  0
 23 24  2  0
 23 25  1  0
 25 26  2  0
 25 27  1  0
 26 28  1  0
 26 29  1  0
 27 30  2  0
 28 31  1  0
 31 32  2  0
 31 33  1  0
 32 34  1  0
 33 35  2  0
 34 36  2  0
 36 37  1  0
  8  9  1  0
 28 30  1  0
 35 36  1  0
  6 38  1  0
  8 39  1  0
  9 40  1  0
 12 41  1  0
 12 42  1  0
 13 43  1  0
 13 44  1  0
 15 45  1  0
 15 46  1  0
 15 47  1  0
 16 48  1  0
 18 49  1  0
 18 50  1  0
 22 51  1  0
 27 52  1  0
 29 53  1  0
 29 54  1  0
 32 55  1  0
 33 56  1  0
 34 57  1  0
 35 58  1  0
M  END
> <Name>
CHEMBL520750

> <IC50 nM>
7.94

> <Molecule_ChEMBL_ID>
CHEMBL520750

> <Smiles>
CCN(CC(O)(CNC(=O)c1cnn(-c2ccc(F)cc2)c1N)C(F)(F)F)C(=O)c1cccc(F)c1Cl

$$$$
CHEMBL465919
  SciTegic08162514323D

 62 65  0  0  1  0            999 V2000
    5.6950    6.4450    4.0100 F   0  0
    4.9280    5.4570    3.5590 C   0  0
    4.2070    5.6150    2.3610 C   0  0
    4.8380    4.2520    4.2770 C   0  0
    3.3980    4.5700    1.8850 C   0  0
    4.0290    3.2050    3.8010 C   0  0
    3.3070    3.3630    2.6040 C   0  0
    2.5230    2.3540    2.1410 N   0  0
    2.5610    1.8890    0.8890 N   0  0
    1.5980    1.6640    2.8560 C   0  0
    1.6800    0.8890    0.7090 C   0  0
    1.2230    1.8360    4.2720 N   0  0
    1.0430    0.7190    1.9570 C   0  0
    0.0020   -0.2580    2.2580 C   0  0
   -0.4790   -0.3100    3.3650 O   0  0
   -0.4240   -1.1090    1.2790 N   0  0
   -1.4730   -2.0940    1.5860 C   0  0
   -2.1800   -2.5550    0.3110 C   0  0  1  0  0  0
   -1.2990   -3.3930   -0.4040 O   0  0
   -3.4590   -3.3420    0.5980 C   0  0
   -2.5780   -1.3910   -0.5980 C   0  0
   -3.2950   -4.0780    1.7420 F   0  0
   -3.7250   -4.1820   -0.4530 F   0  0
   -4.5040   -2.4690    0.7620 F   0  0
   -3.2520   -1.8770   -1.8110 N   0  0
   -2.5020   -2.2500   -2.8910 C   0  0
   -4.7190   -1.9490   -1.8300 C   0  0
   -2.9100   -3.0900   -3.6560 O   0  0
   -1.2290   -1.5020   -2.9320 C   0  0
   -5.2870   -1.2270   -3.0530 C   0  0
    0.0040   -2.2050   -2.8830 C   0  0
   -1.2460   -0.0820   -3.0200 C   0  0
    1.2030   -1.4530   -2.9240 C   0  0
   -0.0250    0.6410   -3.0590 C   0  0
    1.1880   -0.0840   -3.0080 C   0  0
    2.4570   -1.9530   -2.8870 C   0  0
    2.5120    0.3280   -3.0250 N   0  0
    3.3130   -0.8380   -2.9510 C   0  0
    4.2750    6.5390    1.8070 H   0  0
    5.3910    4.1250    5.1970 H   0  0
    2.8520    4.7110    0.9610 H   0  0
    3.9730    2.2870    4.3690 H   0  0
    1.5230    0.3540   -0.2190 H   0  0
    1.7130    2.4630    4.8770 H   0  0
    0.4570    1.3180    4.6540 H   0  0
   -0.0250   -1.0640    0.3630 H   0  0
   -1.0290   -2.9390    2.1080 H   0  0
   -2.1860   -1.6520    2.2830 H   0  0
   -0.5140   -2.8650   -0.6170 H   0  0
   -3.2380   -0.7010   -0.0740 H   0  0
   -1.7010   -0.8090   -0.8830 H   0  0
   -5.0270   -2.9940   -1.8240 H   0  0
   -5.1110   -1.5180   -0.9100 H   0  0
   -5.4730   -1.9300   -3.8650 H   0  0
   -6.2190   -0.7190   -2.8010 H   0  0
   -4.5860   -0.4750   -3.4160 H   0  0
    0.0250   -3.2830   -2.8180 H   0  0
   -2.1840    0.4530   -3.0550 H   0  0
   -0.0250    1.7190   -3.1250 H   0  0
    2.7520   -2.9940   -2.8220 H   0  0
    2.8400    1.2640   -3.0820 H   0  0
    4.3950   -0.8300   -2.9470 H   0  0
  1  2  1  0
  2  3  2  0
  2  4  1  0
  3  5  1  0
  4  6  2  0
  5  7  2  0
  7  8  1  0
  8  9  1  0
  8 10  1  0
  9 11  2  0
 10 12  1  0
 10 13  2  0
 13 14  1  0
 14 15  2  0
 14 16  1  0
 16 17  1  0
 17 18  1  0
 18 19  1  0
 18 20  1  0
 18 21  1  0
 20 22  1  0
 20 23  1  0
 20 24  1  0
 21 25  1  0
 25 26  1  0
 25 27  1  0
 26 28  2  0
 26 29  1  0
 27 30  1  0
 29 31  2  0
 29 32  1  0
 31 33  1  0
 32 34  2  0
 33 35  2  0
 33 36  1  0
 35 37  1  0
 36 38  2  0
  6  7  1  0
 11 13  1  0
 34 35  1  0
 37 38  1  0
  3 39  1  0
  4 40  1  0
  5 41  1  0
  6 42  1  0
 11 43  1  0
 12 44  1  0
 12 45  1  0
 16 46  1  0
 17 47  1  0
 17 48  1  0
 19 49  1  0
 21 50  1  0
 21 51  1  0
 27 52  1  0
 27 53  1  0
 30 54  1  0
 30 55  1  0
 30 56  1  0
 31 57  1  0
 32 58  1  0
 34 59  1  0
 36 60  1  0
 37 61  1  0
 38 62  1  0
M  END
> <Name>
CHEMBL465919

> <IC50 nM>
6.31

> <Molecule_ChEMBL_ID>
CHEMBL465919

> <Smiles>
CCN(CC(O)(CNC(=O)c1cnn(-c2ccc(F)cc2)c1N)C(F)(F)F)C(=O)c1ccc2[nH]ccc2c1

$$$$
CHEMBL1473
  SciTegic08162514323D

 65 68  0  0  1  0            999 V2000
   -3.0900    2.1020    1.4940 S   0  0
   -3.3090    1.2090    0.0780 C   0  0
   -4.2150    3.4260    1.2890 C   0  0
   -4.1860    1.4240   -0.7250 O   0  0
   -2.3130    0.0940   -0.1370 C   0  0  2  0  0  0
   -3.5270    4.6120    1.2750 F   0  0
   -2.4360   -0.8050    0.9630 O   0  0
   -0.8520    0.5590   -0.2700 C   0  0  2  0  0  0
   -2.5100   -0.6700   -1.4630 C   0  0  1  0  0  0
   -3.6600   -0.8080    1.4790 C   0  0
   -0.1890   -0.7500   -0.7130 C   0  0  1  0  0  0
   -0.1460    0.9940    1.0250 C   0  0
   -0.7970    1.6450   -1.3610 C   0  0
   -1.1310   -1.2620   -1.8050 C   0  0
   -3.6000   -1.7360   -1.3890 C   0  0
   -4.6700   -0.7660    0.8160 O   0  0
   -3.7210   -0.8690    2.9820 C   0  0
    1.2810   -0.5350   -1.1130 C   0  0  1  0  0  0
    1.3670    1.2290    0.7950 C   0  0  1  0  0  0
   -3.7420   -2.3070    3.5060 C   0  0
    2.0940    0.0330    0.0840 C   0  0  1  0  0  0
    1.8950   -1.8530   -1.6210 C   0  0
    1.5370    2.4400    0.0800 O   0  0
    2.1350   -0.9570    1.0470 F   0  0
    3.5800    0.3010   -0.3460 C   0  0  2  0  0  0
    3.3670   -1.6850   -2.0310 C   0  0  1  0  0  0
    4.2070   -0.9390   -1.0020 C   0  0
    4.3990    0.8400    0.8240 C   0  0
    3.6720    1.3710   -1.4430 C   0  0
    3.8710   -2.9390   -2.2990 F   0  0
    5.4610   -1.3440   -0.6950 C   0  0
    5.6430    0.4120    1.1020 C   0  0
    6.2720   -0.6440    0.3090 C   0  0
    7.4340   -0.9350    0.4820 O   0  0
   -4.9280    3.4280    2.1150 H   0  0
   -4.7500    3.3050    0.3480 H   0  0
   -2.7750    0.0260   -2.2460 H   0  0
   -0.2210   -1.4630    0.1040 H   0  0
   -0.6210    1.8830    1.4430 H   0  0
   -0.2640    0.2110    1.7770 H   0  0
   -1.4000    1.3790   -2.2290 H   0  0
    0.2270    1.7950   -1.7010 H   0  0
   -1.1640    2.5960   -0.9770 H   0  0
   -1.1290   -2.3440   -1.8320 H   0  0
   -0.8090   -0.9200   -2.7770 H   0  0
   -4.5940   -1.2970   -1.3180 H   0  0
   -3.4550   -2.3770   -0.5200 H   0  0
   -3.5780   -2.3710   -2.2750 H   0  0
   -2.8300   -0.4080    3.4080 H   0  0
   -4.5880   -0.3160    3.3420 H   0  0
    1.3200    0.1880   -1.9340 H   0  0
    1.8200    1.4060    1.7720 H   0  0
   -3.7620   -2.3180    4.5960 H   0  0
   -4.6150   -2.8400    3.1290 H   0  0
   -2.8540   -2.8480    3.1820 H   0  0
    1.3320   -2.2210   -2.4800 H   0  0
    1.8090   -2.6270   -0.8530 H   0  0
    1.1840    3.1530    0.6350 H   0  0
    3.3990   -1.1110   -2.9610 H   0  0
    3.9750    1.6020    1.4630 H   0  0
    4.6210    1.3260   -1.9770 H   0  0
    3.5760    2.3690   -1.0160 H   0  0
    2.8710    1.2440   -2.1720 H   0  0
    5.9010   -2.1930   -1.1930 H   0  0
    6.1800    0.8580    1.9280 H   0  0
  1  2  1  0
  1  3  1  0
  2  4  2  0
  2  5  1  0
  3  6  1  0
  5  7  1  0
  5  8  1  0
  5  9  1  0
  7 10  1  0
  8 11  1  0
  8 12  1  0
  8 13  1  0
  9 14  1  0
  9 15  1  0
 10 16  2  0
 10 17  1  0
 11 18  1  0
 12 19  1  0
 17 20  1  0
 18 21  1  0
 18 22  1  0
 19 23  1  0
 21 24  1  0
 21 25  1  0
 22 26  1  0
 25 27  1  0
 25 28  1  0
 25 29  1  0
 26 30  1  0
 27 31  2  0
 28 32  2  0
 31 33  1  0
 33 34  2  0
 11 14  1  0
 19 21  1  0
 26 27  1  0
 32 33  1  0
  3 35  1  0
  3 36  1  0
  9 37  1  0
 11 38  1  0
 12 39  1  0
 12 40  1  0
 13 41  1  0
 13 42  1  0
 13 43  1  0
 14 44  1  0
 14 45  1  0
 15 46  1  0
 15 47  1  0
 15 48  1  0
 17 49  1  0
 17 50  1  0
 18 51  1  0
 19 52  1  0
 20 53  1  0
 20 54  1  0
 20 55  1  0
 22 56  1  0
 22 57  1  0
 23 58  1  0
 26 59  1  0
 28 60  1  0
 29 61  1  0
 29 62  1  0
 29 63  1  0
 31 64  1  0
 32 65  1  0
M  END
> <Name>
CHEMBL1473

> <IC50 nM>
0.5

> <Molecule_ChEMBL_ID>
CHEMBL1473

> <Smiles>
CCC(=O)O[C@]1(C(=O)SCF)[C@H](C)C[C@H]2[C@@H]3C[C@H](F)C4=CC(=O)C=C[C@]4(C)[C@@]3(F)[C@@H](O)C[C@@]21C

$$$$
CHEMBL522432
  SciTegic08162514323D

 43 46  0  0  1  0            999 V2000
    2.5570    3.8570   -1.3750 S   0  0
    2.3650    3.1840    0.1740 C   0  0
    2.2010    2.3890   -2.1530 C   0  0
    2.0250    1.8200    0.1130 C   0  0
    1.9340    1.3710   -1.2230 C   0  0
    1.7870    0.9410    1.3320 C   0  0  2  0  0  0
    3.0490    0.6440    1.9080 O   0  0
    0.9040   -0.2190    0.9490 C   0  0
    1.1060    1.7910    2.4120 C   0  0
    3.8970   -0.1910    1.1540 C   0  0
    1.2130   -1.6350    1.0410 C   0  0
   -0.3810    0.1600    0.4510 C   0  0
    3.6370   -1.6170    1.5490 C   0  0
    2.3870   -2.1880    1.4730 N   0  0
    0.2150   -2.5860    0.6580 C   0  0
   -1.3140   -0.8200    0.0840 C   0  0
    4.5630   -2.2830    1.9530 O   0  0
   -1.0510   -2.1930    0.1780 C   0  0
   -2.6370   -0.3870   -0.4240 C   0  0
   -3.2640   -0.8520   -1.5370 N   0  0
   -3.3570    0.5980    0.2690 C   0  0
   -4.4360   -0.1470   -1.5720 C   0  0
   -2.7850   -1.8810   -2.4880 C   0  0
   -4.5290    0.7540   -0.4770 C   0  0
   -5.4900   -0.2340   -2.5430 C   0  0
   -6.3440   -0.3050   -3.3260 N   0  0
    2.4920    3.7480    1.0880 H   0  0
    2.1880    2.2680   -3.2270 H   0  0
    1.6840    0.3550   -1.5000 H   0  0
    0.8130    1.1930    3.2750 H   0  0
    0.2090    2.2700    2.0170 H   0  0
    1.7740    2.5780    2.7640 H   0  0
    4.9220    0.0740    1.4160 H   0  0
    3.7850   -0.0430    0.0780 H   0  0
   -0.6440    1.2050    0.3550 H   0  0
    2.3670   -3.1490    1.7580 H   0  0
    0.4040   -3.6490    0.7230 H   0  0
   -1.7870   -2.9300   -0.1080 H   0  0
   -3.0820    1.1210    1.1740 H   0  0
   -3.2360   -1.7090   -3.4650 H   0  0
   -1.6950   -1.8670   -2.5200 H   0  0
   -3.0980   -2.8650   -2.1430 H   0  0
   -5.3460    1.4280   -0.2640 H   0  0
  1  2  1  0
  1  3  1  0
  2  4  2  0
  3  5  2  0
  6  4  1  0
  6  7  1  0
  6  8  1  0
  6  9  1  0
  7 10  1  0
  8 11  2  0
  8 12  1  0
 10 13  1  0
 11 14  1  0
 11 15  1  0
 12 16  2  0
 13 17  2  0
 15 18  2  0
 16 19  1  0
 19 20  1  0
 19 21  2  0
 20 22  1  0
 20 23  1  0
 21 24  1  0
 22 25  1  0
 25 26  3  0
  4  5  1  0
 13 14  1  0
 16 18  1  0
 22 24  2  0
  2 27  1  0
  3 28  1  0
  5 29  1  0
  9 30  1  0
  9 31  1  0
  9 32  1  0
 10 33  1  0
 10 34  1  0
 12 35  1  0
 14 36  1  0
 15 37  1  0
 18 38  1  0
 21 39  1  0
 23 40  1  0
 23 41  1  0
 23 42  1  0
 24 43  1  0
M  END
> <Name>
CHEMBL522432

> <IC50 nM>
127

> <Molecule_ChEMBL_ID>
CHEMBL522432

> <Smiles>
Cn1c(C#N)ccc1-c1ccc2c(c1)C(C)(c1ccsc1)OCC(=O)N2

$$$$
CHEMBL509182
  SciTegic08162514323D

 77 81  0  0  1  0            999 V2000
   -2.9940    1.0100   -0.5900 F   0  0
   -3.1340   -0.3440   -0.8250 C   0  0  2  0  0  0
   -4.5720   -0.5370   -1.4180 C   0  0  2  0  0  0
   -2.8800   -1.0070    0.5680 C   0  0  1  0  0  0
   -2.0420   -0.7410   -1.8640 C   0  0  2  0  0  0
   -4.6630    0.2250   -2.7420 C   0  0
   -5.6450   -0.1200   -0.4170 C   0  0
   -4.8570   -2.0050   -1.7640 C   0  0
   -3.2280   -2.3790    0.5550 O   0  0
   -1.4150   -0.8690    1.0550 C   0  0
   -0.6450   -0.4840   -1.2720 C   0  0  1  0  0  0
   -2.1920    0.0450   -3.1830 C   0  0
   -5.6290    1.1330   -2.9980 C   0  0
   -3.6000   -0.0800   -3.7770 C   0  0
   -6.5950    0.7950   -0.6940 C   0  0
   -0.3960   -1.3160   -0.0090 C   0  0  1  0  0  0
    0.5580   -0.8480   -2.1400 C   0  0
   -6.6540    1.4580   -2.0010 C   0  0
    1.0770   -0.9510    0.2600 C   0  0  1  0  0  0
   -0.4820   -2.8250   -0.2860 C   0  0
    1.7190   -1.0050   -1.1440 C   0  0  1  0  0  0
   -7.5280    2.2560   -2.2500 O   0  0
    1.1510    0.3900    0.7310 O   0  0
    1.7530   -1.8050    1.3080 C   0  0
    2.4590   -2.3090   -1.4470 C   0  0
    2.3760    0.7200    1.1280 C   0  0
    1.1050   -2.4210    2.1210 O   0  0
    3.2570   -1.8650    1.3080 C   0  0
    3.3300    0.7810    0.3870 O   0  0
    2.5160    0.9980    2.4580 N   0  0
    3.6730   -3.2120    1.3080 O   0  0
    3.8400    1.3600    2.9840 C   0  0  1  0  0  0
    4.3160    2.6530    2.4240 C   0  0
    3.8370    1.3760    4.5120 C   0  0
    5.5220    2.7070    1.7030 C   0  0
    3.5600    3.8240    2.6160 C   0  0
    5.9710    3.9300    1.1740 C   0  0
    4.0100    5.0460    2.0880 C   0  0
    5.2150    5.0990    1.3670 C   0  0
   -3.5260   -0.5500    1.3180 H   0  0
   -2.1420   -1.8030   -2.0940 H   0  0
   -5.6550   -0.5740    0.5630 H   0  0
   -5.6800   -2.1040   -2.4720 H   0  0
   -5.1190   -2.5680   -0.8680 H   0  0
   -3.9790   -2.4750   -2.2070 H   0  0
   -3.4180   -2.6340    1.4710 H   0  0
   -1.2610   -1.4240    1.9820 H   0  0
   -1.2390    0.1760    1.3100 H   0  0
   -0.5680    0.5690   -1.0340 H   0  0
   -1.9680    1.0990   -3.0110 H   0  0
   -1.4630   -0.3050   -3.9150 H   0  0
   -5.6540    1.6370   -3.9530 H   0  0
   -3.6930    0.5850   -4.6370 H   0  0
   -3.7530   -1.0920   -4.1530 H   0  0
   -7.3270    1.0430    0.0610 H   0  0
    0.7610   -0.0840   -2.8760 H   0  0
    0.3610   -1.7650   -2.6800 H   0  0
   -1.4510   -3.1080   -0.6980 H   0  0
   -0.3300   -3.3950    0.6300 H   0  0
    0.2850   -3.1300   -0.9990 H   0  0
    2.4160   -0.1860   -1.2580 H   0  0
    2.1740   -2.6960   -2.4250 H   0  0
    3.5380   -2.1540   -1.4260 H   0  0
    2.2180   -3.0700   -0.7040 H   0  0
    3.6470   -1.3900    2.2080 H   0  0
    3.6470   -1.3900    0.4080 H   0  0
    1.7210    0.9520    3.0610 H   0  0
    4.6430   -3.2120    1.3080 H   0  0
    4.5810    0.6550    2.6070 H   0  0
    3.5290    0.4160    4.9280 H   0  0
    3.1540    2.1370    4.8890 H   0  0
    4.8320    1.6010    4.8980 H   0  0
    6.1070    1.8120    1.5520 H   0  0
    2.6320    3.7900    3.1700 H   0  0
    6.8970    3.9710    0.6200 H   0  0
    3.4290    5.9440    2.2350 H   0  0
    5.5600    6.0390    0.9600 H   0  0
  2  1  1  0
  2  3  1  0
  2  4  1  0
  2  5  1  0
  3  6  1  0
  3  7  1  0
  3  8  1  0
  4  9  1  0
  4 10  1  0
  5 11  1  0
  5 12  1  0
  6 13  2  0
  6 14  1  0
  7 15  2  0
 10 16  1  0
 11 17  1  0
 13 18  1  0
 16 19  1  0
 16 20  1  0
 17 21  1  0
 18 22  2  0
 19 23  1  0
 19 24  1  0
 21 25  1  0
 23 26  1  0
 24 27  2  0
 24 28  1  0
 26 29  2  0
 26 30  1  0
 28 31  1  0
 30 32  1  0
 32 33  1  0
 32 34  1  0
 33 35  2  0
 33 36  1  0
 35 37  1  0
 36 38  2  0
 37 39  2  0
 11 16  1  0
 12 14  1  0
 15 18  1  0
 19 21  1  0
 38 39  1  0
  4 40  1  0
  5 41  1  0
  7 42  1  0
  8 43  1  0
  8 44  1  0
  8 45  1  0
  9 46  1  0
 10 47  1  0
 10 48  1  0
 11 49  1  0
 12 50  1  0
 12 51  1  0
 13 52  1  0
 14 53  1  0
 14 54  1  0
 15 55  1  0
 17 56  1  0
 17 57  1  0
 20 58  1  0
 20 59  1  0
 20 60  1  0
 21 61  1  0
 25 62  1  0
 25 63  1  0
 25 64  1  0
 28 65  1  0
 28 66  1  0
 30 67  1  0
 31 68  1  0
 32 69  1  0
 34 70  1  0
 34 71  1  0
 34 72  1  0
 35 73  1  0
 36 74  1  0
 37 75  1  0
 38 76  1  0
 39 77  1  0
M  END
> <Name>
CHEMBL509182

> <IC50 nM>
5.2

> <Molecule_ChEMBL_ID>
CHEMBL509182

> <Smiles>
C[C@@H](NC(=O)O[C@]1(C(=O)CO)[C@@H](C)C[C@H]2[C@@H]3CCC4=CC(=O)C=C[C@]4(C)[C@@]3(F)[C@@H](O)C[C@@]21C)c1ccccc1

$$$$
CHEMBL372102
  SciTegic08162514323D

 63 66  0  0  1  0            999 V2000
   -5.0530    4.1780    1.0470 F   0  0
   -4.7830    2.8970    1.2850 C   0  0
   -4.1820    2.1070    0.2890 C   0  0
   -5.0980    2.3320    2.5330 C   0  0
   -3.8960    0.7540    0.5390 C   0  0
   -4.8130    0.9790    2.7830 C   0  0
   -4.2110    0.1860    1.7890 C   0  0
   -3.2620   -0.0720   -0.5230 C   0  0
   -3.9490   -1.0820    2.0350 O   0  0
   -1.8400    0.1500   -0.0040 C   0  0
   -3.4820    0.5290   -1.9120 C   0  0
   -3.6990   -1.5350   -0.4360 C   0  0
   -0.8030   -0.6910   -0.7460 C   0  0  1  0  0  0
   -1.2790   -0.9300   -2.0510 O   0  0
    0.4380    0.1600   -0.8130 C   0  0
   -0.5470   -2.0410   -0.0760 C   0  0
    0.5350    1.1700   -0.1580 O   0  0
    1.4590   -0.2300   -1.6330 N   0  0
   -0.2210   -1.8850    1.3650 C   0  0
    2.5740    0.5080   -1.7130 C   0  0
   -1.1480   -2.2830    2.3440 C   0  0
    1.0160   -1.3360    1.7500 C   0  0
    3.8480   -0.1210   -1.7500 C   0  0
    2.4940    1.9260   -1.7600 C   0  0
   -0.8380   -2.1350    3.7070 C   0  0
    1.3240   -1.1880    3.1130 C   0  0
    5.0260    0.6640   -1.8340 C   0  0
    3.6680    2.7110   -1.8440 C   0  0
    0.3970   -1.5860    4.0920 C   0  0
    4.9300    2.0720   -1.8810 C   0  0
    6.3810    0.0450   -1.8730 C   0  0
    6.2030    2.8420   -1.9690 C   0  0
    7.4340    0.7870   -1.9490 N   0  0
    6.5570   -1.4530   -1.8280 C   0  0
    6.2190    4.0510   -2.0160 O   0  0
    7.4180    2.2480   -2.0020 O   0  0
   -3.9390    2.5430   -0.6700 H   0  0
   -5.5590    2.9340    3.3010 H   0  0
   -5.0570    0.5470    3.7420 H   0  0
   -4.1740   -1.4530    2.8980 H   0  0
   -1.5780    1.2070   -0.0390 H   0  0
   -1.7890   -0.0350    1.0700 H   0  0
   -2.7560    1.3090   -2.1370 H   0  0
   -4.4770    0.9690   -1.9860 H   0  0
   -3.3980   -0.2380   -2.6820 H   0  0
   -3.1740   -2.0700    0.3550 H   0  0
   -3.5020   -2.0530   -1.3750 H   0  0
   -4.7680   -1.6050   -0.2340 H   0  0
   -0.6850   -1.5780   -2.4590 H   0  0
    0.2620   -2.5720   -0.5760 H   0  0
   -1.4140   -2.6930   -0.1840 H   0  0
    1.3770   -1.0660   -2.1760 H   0  0
   -2.1000   -2.7050    2.0550 H   0  0
    1.7330   -1.0270    1.0040 H   0  0
    3.9220   -1.1990   -1.7170 H   0  0
    1.5350    2.4240   -1.7320 H   0  0
   -1.5510   -2.4410    4.4590 H   0  0
    2.2740   -0.7680    3.4100 H   0  0
    3.5920    3.7870   -1.8810 H   0  0
    0.6350   -1.4730    5.1410 H   0  0
    7.6150   -1.7050   -1.9040 H   0  0
    6.1150   -1.8500   -0.9120 H   0  0
    6.0430   -1.9120   -2.6720 H   0  0
  1  2  1  0
  2  3  2  0
  2  4  1  0
  3  5  1  0
  4  6  2  0
  5  7  2  0
  5  8  1  0
  7  9  1  0
  8 10  1  0
  8 11  1  0
  8 12  1  0
 10 13  1  0
 13 14  1  0
 13 15  1  0
 13 16  1  0
 15 17  2  0
 15 18  1  0
 16 19  1  0
 18 20  1  0
 19 21  2  0
 19 22  1  0
 20 23  2  0
 20 24  1  0
 21 25  1  0
 22 26  2  0
 23 27  1  0
 24 28  2  0
 25 29  2  0
 27 30  2  0
 27 31  1  0
 30 32  1  0
 31 33  2  0
 31 34  1  0
 32 35  2  0
 32 36  1  0
  6  7  1  0
 26 29  1  0
 28 30  1  0
 33 36  1  0
  3 37  1  0
  4 38  1  0
  6 39  1  0
  9 40  1  0
 10 41  1  0
 10 42  1  0
 11 43  1  0
 11 44  1  0
 11 45  1  0
 12 46  1  0
 12 47  1  0
 12 48  1  0
 14 49  1  0
 16 50  1  0
 16 51  1  0
 18 52  1  0
 21 53  1  0
 22 54  1  0
 23 55  1  0
 24 56  1  0
 25 57  1  0
 26 58  1  0
 28 59  1  0
 29 60  1  0
 34 61  1  0
 34 62  1  0
 34 63  1  0
M  END
> <Name>
CHEMBL372102

> <IC50 nM>
8

> <Molecule_ChEMBL_ID>
CHEMBL372102

> <Smiles>
Cc1noc(=O)c2ccc(NC(=O)C(O)(Cc3ccccc3)CC(C)(C)c3cc(F)ccc3O)cc12

$$$$
CHEMBL1917255
  SciTegic08162514323D

 76 82  0  0  1  0            999 V2000
   -7.0370   -2.5660    1.6370 S   0  0
   -5.6190   -1.8570    0.9000 C   0  0
   -7.7480   -1.1230    1.2730 C   0  0
   -4.0220   -2.3030    0.5800 S   0  0
   -5.8030   -0.5390    0.4200 N   0  0
   -7.0820   -0.1150    0.6520 C   0  0
   -9.1060   -0.8120    1.5760 C   0  0
   -3.3830   -0.8810   -0.2150 C   0  0
   -7.4590    1.1390    0.2600 N   0  0
   -9.6330    0.4710    1.2210 C   0  0
   -1.9420   -1.1170   -0.5780 C   0  0
   -8.7850    1.4220    0.5640 C   0  0
   -1.5840   -2.1640   -1.0660 O   0  0
   -0.9510   -0.0060   -0.3140 C   0  0  2  0  0  0
   -0.8830    0.7870   -1.4960 O   0  0
    0.4610   -0.4770    0.0840 C   0  0  2  0  0  0
   -1.3400    0.9000    0.8630 C   0  0
   -2.0860    1.1170   -1.9550 C   0  0
    1.0600    0.8540    0.5530 C   0  0  1  0  0  0
    1.3480   -1.0040   -1.0590 C   0  0
    0.3320   -1.4840    1.2340 C   0  0
   -0.0270    1.4040    1.4730 C   0  0
   -2.8130    1.9220   -1.4240 O   0  0
   -2.5120    0.4410   -3.1720 C   0  0
    2.4670    0.6840    1.1540 C   0  0  1  0  0  0
    2.8220   -1.1740   -0.6210 C   0  0  1  0  0  0
   -1.6060   -0.3480   -3.8150 O   0  0
   -3.7580    0.4810   -3.8030 C   0  0
    3.4080    0.0980    0.0700 C   0  0  2  0  0  0
    2.9690    2.0660    1.6040 C   0  0
    2.9260   -2.3090    0.2150 O   0  0
   -2.3050   -0.8200   -4.8890 C   0  0
   -3.6210   -0.3420   -4.9200 C   0  0
    4.8890   -0.0250    0.5620 C   0  0  2  0  0  0
    4.4060    2.0160    2.1210 C   0  0
    5.3570    1.2850    1.1950 C   0  0
    5.7870   -0.4220   -0.6370 C   0  0
    5.0330   -1.0700    1.6760 C   0  0
    6.5900    1.7930    0.9670 C   0  0
    7.2870   -0.2790   -0.3570 C   0  0
    7.6040    1.1040    0.1520 C   0  0
    8.6600    1.6390   -0.0980 O   0  0
   -9.7350   -1.5370    2.0700 H   0  0
   -3.9630   -0.6760   -1.1130 H   0  0
   -3.4610   -0.0250    0.4550 H   0  0
  -10.6600    0.7210    1.4450 H   0  0
   -9.1920    2.3870    0.2990 H   0  0
   -1.8950    0.3500    1.6110 H   0  0
   -1.9710    1.7170    0.5430 H   0  0
    1.1430    1.5230   -0.2930 H   0  0
    0.9470   -1.9410   -1.4450 H   0  0
    1.3200   -0.3050   -1.8950 H   0  0
   -0.4400   -1.1930    1.9450 H   0  0
    1.2730   -1.5680    1.7810 H   0  0
    0.0800   -2.4750    0.8540 H   0  0
    0.0060    2.4820    1.5230 H   0  0
    0.0900    1.0250    2.4770 H   0  0
    2.4300    0.0160    2.0160 H   0  0
    3.4080   -1.4040   -1.5100 H   0  0
   -4.6390    1.0290   -3.4920 H   0  0
    3.4280    0.8480   -0.7230 H   0  0
    2.3200    2.4730    2.3790 H   0  0
    2.9200    2.7640    0.7660 H   0  0
    2.7230   -3.0860   -0.3320 H   0  0
   -1.8770   -1.4900   -5.6230 H   0  0
   -4.3750   -0.5640   -5.6620 H   0  0
    4.7540    3.0330    2.3050 H   0  0
    4.4180    1.5120    3.0900 H   0  0
    5.5800   -1.4470   -0.9450 H   0  0
    5.5410    0.2050   -1.4960 H   0  0
    5.9450   -0.9020    2.2460 H   0  0
    4.1800   -1.0330    2.3540 H   0  0
    5.0820   -2.0760    1.2580 H   0  0
    6.8570    2.7440    1.4060 H   0  0
    7.6040   -1.0120    0.3850 H   0  0
    7.8570   -0.4770   -1.2660 H   0  0
  1  2  1  0
  1  3  1  0
  2  4  1  0
  2  5  2  0
  3  6  1  0
  3  7  2  0
  4  8  1  0
  6  9  2  0
  7 10  1  0
  8 11  1  0
  9 12  1  0
 11 13  2  0
 11 14  1  0
 14 15  1  0
 14 16  1  0
 14 17  1  0
 15 18  1  0
 16 19  1  0
 16 20  1  0
 16 21  1  0
 17 22  1  0
 18 23  2  0
 18 24  1  0
 19 25  1  0
 20 26  1  0
 24 27  1  0
 24 28  2  0
 29 25  1  0
 25 30  1  0
 26 31  1  0
 27 32  1  0
 28 33  1  0
 29 34  1  0
 30 35  1  0
 34 36  1  0
 34 37  1  0
 34 38  1  0
 36 39  2  0
 37 40  1  0
 39 41  1  0
 41 42  2  0
  5  6  1  0
 10 12  2  0
 19 22  1  0
 26 29  1  0
 32 33  2  0
 35 36  1  0
 40 41  1  0
  7 43  1  0
  8 44  1  0
  8 45  1  0
 10 46  1  0
 12 47  1  0
 17 48  1  0
 17 49  1  0
 19 50  1  0
 20 51  1  0
 20 52  1  0
 21 53  1  0
 21 54  1  0
 21 55  1  0
 22 56  1  0
 22 57  1  0
 25 58  1  0
 26 59  1  0
 28 60  1  0
 29 61  1  0
 30 62  1  0
 30 63  1  0
 31 64  1  0
 32 65  1  0
 33 66  1  0
 35 67  1  0
 35 68  1  0
 37 69  1  0
 37 70  1  0
 38 71  1  0
 38 72  1  0
 38 73  1  0
 39 74  1  0
 40 75  1  0
 40 76  1  0
M  END
> <Name>
CHEMBL1917255

> <IC50 nM>
14.3

> <Molecule_ChEMBL_ID>
CHEMBL1917255

> <Smiles>
C[C@]12CCC(=O)C=C1CC[C@@H]1[C@@H]2[C@@H](O)C[C@@]2(C)[C@H]1CC[C@]2(OC(=O)c1ccco1)C(=O)CSc1nc2ncccc2s1

$$$$
CHEMBL1911657
  SciTegic08162514323D

 56 59  0  0  1  0            999 V2000
   -2.4370    0.4430    0.9940 F   0  0
   -1.6910   -0.4900    1.6680 C   0  0
   -1.5840   -0.1250    2.9840 F   0  0
   -2.3050   -1.7130    1.5820 F   0  0
   -0.2970   -0.5740    1.0450 C   0  0  1  0  0  0
    0.6150   -0.9350    2.0570 O   0  0
   -0.2110   -1.6130   -0.0720 C   0  0
    0.0510    0.8360    0.5660 C   0  0
    0.2010   -2.9670    0.4690 C   0  0
    0.1230    0.9420   -0.9570 C   0  0
    1.5060   -3.5000    0.3200 N   0  0
   -0.5800   -3.8980    1.1780 C   0  0
    0.0470    2.4100   -0.9670 C   0  0
    1.4530    0.4420   -1.5220 C   0  0
   -1.0860    0.3110   -1.6490 C   0  0
    1.5080   -4.7400    0.9350 C   0  0
    0.2440   -4.9370    1.4340 C   0  0
   -1.2230    3.0390   -1.0800 C   0  0
    1.2380    3.1640   -0.8650 C   0  0
    2.5250   -5.7090    1.0960 C   0  0
   -0.0960   -6.1210    2.1310 C   0  0
   -2.4320    2.4880   -1.1820 O   0  0
   -1.2750    4.4400   -1.0940 C   0  0
    1.1720    4.5700   -0.8750 C   0  0
    2.2130   -6.9080    1.7890 C   0  0
    0.9040   -7.1130    2.3070 C   0  0
   -3.4490    3.5000   -1.2640 C   0  0
   -0.0840    5.2030   -0.9880 C   0  0
   -2.7130    4.8730   -1.2290 C   0  0
    2.4020    5.3730   -0.7660 C   0  0
    1.5040   -0.7130    1.7320 H   0  0
    0.4960   -1.2990   -0.8380 H   0  0
   -1.1680   -1.7050   -0.5880 H   0  0
   -0.6500    1.5650    0.9710 H   0  0
    0.9810    1.1780    1.0210 H   0  0
    2.2740   -3.0640   -0.1390 H   0  0
   -1.6210   -3.7970    1.4570 H   0  0
    1.9710    1.2170   -2.0880 H   0  0
    1.2950   -0.4080   -2.1860 H   0  0
    2.1150    0.1170   -0.7190 H   0  0
   -1.5160    0.9730   -2.4000 H   0  0
   -1.8670    0.0780   -0.9260 H   0  0
   -0.8050   -0.6170   -2.1450 H   0  0
    2.1930    2.6640   -0.7810 H   0  0
    3.5180   -5.5430    0.7010 H   0  0
   -1.0920   -6.2750    2.5230 H   0  0
    2.9710   -7.6640    1.9240 H   0  0
    0.6700   -8.0250    2.8340 H   0  0
   -4.1230    3.3830   -0.4280 H   0  0
   -4.0080    3.3610   -2.1800 H   0  0
   -0.1440    6.2810   -0.9960 H   0  0
   -2.8570    5.4340   -2.1410 H   0  0
   -3.0140    5.4770   -0.3850 H   0  0
    2.1470    6.4340   -0.7850 H   0  0
    2.9430    5.0880    0.1370 H   0  0
    3.0450    5.1700   -1.6210 H   0  0
  1  2  1  0
  2  3  1  0
  2  4  1  0
  2  5  1  0
  5  6  1  0
  5  7  1  0
  5  8  1  0
  7  9  1  0
  8 10  1  0
  9 11  1  0
  9 12  2  0
 10 13  1  0
 10 14  1  0
 10 15  1  0
 11 16  1  0
 12 17  1  0
 13 18  2  0
 13 19  1  0
 16 20  1  0
 17 21  1  0
 18 22  1  0
 18 23  1  0
 19 24  2  0
 20 25  2  0
 21 26  2  0
 22 27  1  0
 23 28  2  0
 23 29  1  0
 24 30  1  0
 16 17  2  0
 24 28  1  0
 25 26  1  0
 27 29  1  0
  6 31  1  0
  7 32  1  0
  7 33  1  0
  8 34  1  0
  8 35  1  0
 11 36  1  0
 12 37  1  0
 14 38  1  0
 14 39  1  0
 14 40  1  0
 15 41  1  0
 15 42  1  0
 15 43  1  0
 19 44  1  0
 20 45  1  0
 21 46  1  0
 25 47  1  0
 26 48  1  0
 27 49  1  0
 27 50  1  0
 28 51  1  0
 29 52  1  0
 29 53  1  0
 30 54  1  0
 30 55  1  0
 30 56  1  0
M  END
> <Name>
CHEMBL1911657

> <IC50 nM>
10

> <Molecule_ChEMBL_ID>
CHEMBL1911657

> <Smiles>
Cc1cc2c(c(C(C)(C)CC(O)(Cc3cc4ccccc4[nH]3)C(F)(F)F)c1)OCC2

$$$$
CHEMBL1917248
  SciTegic08162514323D

 69 74  0  0  1  0            999 V2000
    7.3620    3.0550    0.1840 S   0  0
    6.0710    2.2850   -0.7030 C   0  0
    8.1760    1.6310   -0.0180 C   0  0
    4.5220    2.6740   -1.2460 S   0  0
    6.3500    0.9610   -1.1060 N   0  0
    7.5980    0.5840   -0.6950 C   0  0
    9.4870    1.4630    0.5020 C   0  0
    3.6040    1.2400   -0.8360 C   0  0
    8.2540   -0.6540   -0.8950 C   0  0
   10.1780    0.2400    0.3240 C   0  0
    2.1390    1.5840   -0.7720 C   0  0
    9.5590   -0.8240   -0.3770 C   0  0
    1.7740    2.7210   -0.5820 O   0  0
    1.1390    0.4670   -0.9490 C   0  0  2  0  0  0
    1.0060    0.2500   -2.3460 O   0  0
   -0.2400    0.7230   -0.2950 C   0  0  2  0  0  0
    1.5650   -0.8570   -0.2830 C   0  0
   -0.8610   -0.6800   -0.3320 C   0  0  1  0  0  0
   -1.2070    1.6840   -1.0100 C   0  0
    0.0180    1.1640    1.1560 C   0  0
    0.2810   -1.5550    0.1850 C   0  0
   -2.1950   -0.7480    0.4340 C   0  0  1  0  0  0
   -2.6230    1.6700   -0.3870 C   0  0  1  0  0  0
   -3.2070    0.2320   -0.2230 C   0  0  2  0  0  0
   -2.7230   -2.1970    0.3980 C   0  0
   -2.5940    2.3570    0.8500 O   0  0
   -4.6090    0.1450    0.4610 C   0  0  2  0  0  0
   -4.1110   -2.3320    1.0410 C   0  0  1  0  0  0
   -5.0700   -1.3160    0.4320 C   0  0
   -5.5980    1.1000   -0.2010 C   0  0
   -4.5510    0.5510    1.9390 C   0  0
   -4.5880   -3.7890    0.9820 C   0  0
   -6.2580   -1.6860   -0.1040 C   0  0
   -6.7660    0.7010   -0.7340 C   0  0
   -7.1680   -0.7070   -0.7070 C   0  0
   -8.2270   -1.0550   -1.1760 O   0  0
    9.9610    2.2720    1.0390 H   0  0
    3.7700    0.4730   -1.5900 H   0  0
    3.9380    0.8590    0.1310 H   0  0
    7.7720   -1.4590   -1.4320 H   0  0
   11.1760    0.1170    0.7230 H   0  0
   10.0820   -1.7580   -0.5160 H   0  0
    1.8670   -0.0610   -2.6680 H   0  0
    2.1430   -1.4920   -0.9430 H   0  0
    2.1920   -0.6680    0.5780 H   0  0
   -1.0550   -0.9610   -1.3590 H   0  0
   -0.7990    2.6970   -1.0200 H   0  0
   -1.3030    1.3980   -2.0590 H   0  0
    0.8170    0.5840    1.6210 H   0  0
   -0.8790    1.0390    1.7620 H   0  0
    0.3050    2.2150    1.1950 H   0  0
    0.2090   -2.5660   -0.1880 H   0  0
    0.2580   -1.6070    1.2660 H   0  0
   -2.0370   -0.4630    1.4750 H   0  0
   -3.2730    2.2540   -1.0370 H   0  0
   -3.3480   -0.1230   -1.2460 H   0  0
   -2.7690   -2.5470   -0.6350 H   0  0
   -2.0230   -2.8550    0.9140 H   0  0
   -2.4300    3.2930    0.6520 H   0  0
   -4.0080   -2.0860    2.1000 H   0  0
   -5.3590    2.1520   -0.2480 H   0  0
   -5.4280    0.2090    2.4900 H   0  0
   -4.4940    1.6350    2.0410 H   0  0
   -3.6700    0.1250    2.4220 H   0  0
   -5.5330   -3.9080    1.5120 H   0  0
   -4.7190   -4.1110   -0.0510 H   0  0
   -3.8590   -4.4530    1.4490 H   0  0
   -6.5700   -2.7190   -0.1020 H   0  0
   -7.4180    1.4340   -1.1860 H   0  0
  1  2  1  0
  1  3  1  0
  2  4  1  0
  2  5  2  0
  3  6  1  0
  3  7  2  0
  4  8  1  0
  6  9  2  0
  7 10  1  0
  8 11  1  0
  9 12  1  0
 11 13  2  0
 11 14  1  0
 14 15  1  0
 14 16  1  0
 14 17  1  0
 16 18  1  0
 16 19  1  0
 16 20  1  0
 17 21  1  0
 18 22  1  0
 19 23  1  0
 24 22  1  0
 22 25  1  0
 23 26  1  0
 24 27  1  0
 25 28  1  0
 27 29  1  0
 27 30  1  0
 27 31  1  0
 28 32  1  0
 29 33  2  0
 30 34  2  0
 33 35  1  0
 35 36  2  0
  5  6  1  0
 10 12  2  0
 18 21  1  0
 23 24  1  0
 28 29  1  0
 34 35  1  0
  7 37  1  0
  8 38  1  0
  8 39  1  0
  9 40  1  0
 10 41  1  0
 12 42  1  0
 15 43  1  0
 17 44  1  0
 17 45  1  0
 18 46  1  0
 19 47  1  0
 19 48  1  0
 20 49  1  0
 20 50  1  0
 20 51  1  0
 21 52  1  0
 21 53  1  0
 22 54  1  0
 23 55  1  0
 24 56  1  0
 25 57  1  0
 25 58  1  0
 26 59  1  0
 28 60  1  0
 30 61  1  0
 31 62  1  0
 31 63  1  0
 31 64  1  0
 32 65  1  0
 32 66  1  0
 32 67  1  0
 33 68  1  0
 34 69  1  0
M  END
> <Name>
CHEMBL1917248

> <IC50 nM>
18

> <Molecule_ChEMBL_ID>
CHEMBL1917248

> <Smiles>
C[C@H]1C[C@@H]2[C@H]([C@@H](O)C[C@@]3(C)[C@H]2CC[C@]3(O)C(=O)CSc2nc3ccccc3s2)[C@@]2(C)C=CC(=O)C=C12

$$$$
CHEMBL131
  SciTegic08162514323D

 54 57  0  0  1  0            999 V2000
    6.7090    0.5290    1.3960 O   0  0
    5.5450    0.5410    1.0740 C   0  0
    4.7720   -0.6970    0.9880 C   0  0
    4.8590    1.7950    0.7680 C   0  0
    3.5180   -0.7190    0.4880 C   0  0
    3.6110    1.8010    0.2640 C   0  0
    2.8360    0.5290   -0.1060 C   0  0  2  0  0  0
    2.7540   -2.0270    0.5160 C   0  0
    1.3340    0.6110    0.3520 C   0  0  1  0  0  0
    2.9020    0.3770   -1.6310 C   0  0
    1.3400   -1.8400    1.0620 C   0  0
    0.4020    1.7600   -0.2070 C   0  0  1  0  0  0
    0.6230   -0.7680    0.2460 C   0  0  1  0  0  0
    1.0780    2.7150   -1.0000 O   0  0
   -0.8260    1.2970   -1.0350 C   0  0
   -0.8200   -0.5430    0.7050 C   0  0  1  0  0  0
   -1.5940    0.0800   -0.4710 C   0  0  1  0  0  0
   -1.7400   -1.6800    1.1310 C   0  0
   -2.9750    0.2740    0.1990 C   0  0  1  0  0  0
   -1.7890   -0.9530   -1.6000 C   0  0
   -3.1310   -1.0330    1.0180 C   0  0
   -2.9380    1.3830    1.0820 O   0  0
   -4.1130    0.5240   -0.7600 C   0  0
   -3.9060    0.9100   -1.8870 O   0  0
   -5.5160    0.2770   -0.2730 C   0  0
   -5.9610   -0.9780   -0.7340 O   0  0
    5.2290   -1.6110    1.3460 H   0  0
    5.3610    2.7340    0.9570 H   0  0
    3.1820    2.7770    0.1290 H   0  0
    3.2750   -2.7710    1.1210 H   0  0
    2.7090   -2.4320   -0.4960 H   0  0
    1.4020    0.8160    1.4220 H   0  0
    3.9100    0.1350   -1.9710 H   0  0
    2.5980    1.3010   -2.1230 H   0  0
    2.2360   -0.4160   -1.9690 H   0  0
    1.3730   -1.5570    2.1150 H   0  0
    0.8010   -2.7850    1.0080 H   0  0
    0.0160    2.3150    0.6480 H   0  0
    0.6370   -1.1000   -0.7930 H   0  0
    0.4980    3.4880   -1.0720 H   0  0
   -0.4750    1.0490   -2.0390 H   0  0
   -1.5160    2.1290   -1.1800 H   0  0
   -0.7850    0.1330    1.5510 H   0  0
   -1.6480   -2.5270    0.4670 H   0  0
   -1.5250   -2.0210    2.1330 H   0  0
   -0.8480   -1.4510   -1.8300 H   0  0
   -2.5270   -1.7030   -1.3130 H   0  0
   -2.1430   -0.4690   -2.5080 H   0  0
   -3.5530   -0.8520    1.9980 H   0  0
   -3.7970   -1.7270    0.5270 H   0  0
   -2.8050    2.1760    0.5410 H   0  0
   -6.1860    1.0410   -0.6680 H   0  0
   -5.5330    0.2620    0.8160 H   0  0
   -6.8630   -1.1020   -0.4020 H   0  0
  1  2  2  0
  2  3  1  0
  2  4  1  0
  3  5  2  0
  4  6  2  0
  5  7  1  0
  5  8  1  0
  7  9  1  0
  7 10  1  0
  8 11  1  0
  9 12  1  0
  9 13  1  0
 12 14  1  0
 12 15  1  0
 13 16  1  0
 15 17  1  0
 16 18  1  0
 17 19  1  0
 17 20  1  0
 18 21  1  0
 19 22  1  0
 19 23  1  0
 23 24  2  0
 23 25  1  0
 25 26  1  0
  6  7  1  0
 13 11  1  0
 16 17  1  0
 19 21  1  0
  3 27  1  0
  4 28  1  0
  6 29  1  0
  8 30  1  0
  8 31  1  0
  9 32  1  0
 10 33  1  0
 10 34  1  0
 10 35  1  0
 11 36  1  0
 11 37  1  0
 12 38  1  0
 13 39  1  0
 14 40  1  0
 15 41  1  0
 15 42  1  0
 16 43  1  0
 18 44  1  0
 18 45  1  0
 20 46  1  0
 20 47  1  0
 20 48  1  0
 21 49  1  0
 21 50  1  0
 22 51  1  0
 25 52  1  0
 25 53  1  0
 26 54  1  0
M  END
> <Name>
CHEMBL131

> <IC50 nM>
300

> <Molecule_ChEMBL_ID>
CHEMBL131

> <Smiles>
C[C@]12C=CC(=O)C=C1CC[C@@H]1[C@@H]2[C@@H](O)C[C@@]2(C)[C@H]1CC[C@]2(O)C(=O)CO

$$$$
CHEMBL3358954
  SciTegic08162514323D

 60 62  0  0  1  0            999 V2000
    5.3560   -1.5000    2.0610 S   0  0
    5.4080   -2.2070    3.3280 O   0  0
    5.3560   -2.3850    0.9100 O   0  0
    3.9220   -0.5690    2.0260 C   0  0
    6.7680   -0.4080    1.9490 C   0  0
    4.0140    0.8180    2.0760 N   0  0
    2.6600   -1.2350    1.9420 C   0  0
    8.0680   -1.2150    1.9470 C   0  0
    2.8360    1.5350    2.0450 C   0  0
    1.4840   -0.4340    1.9140 C   0  0
    1.5620    0.9350    1.9630 C   0  0
    0.2070   -0.8710    1.8400 C   0  0
    0.2680    1.4220    1.9180 N   0  0
   -0.5880    0.2930    1.8420 C   0  0
   -2.0960    0.4000    1.7780 C   0  0
   -2.6640   -0.4610    0.6490 C   0  0  1  0  0  0
   -1.6040   -0.8150   -0.2130 O   0  0
   -3.1970   -1.7380    1.2990 C   0  0
   -3.7250    0.2690   -0.1740 C   0  0
   -2.2750   -2.2110    2.1970 F   0  0
   -3.4200   -2.6840    0.3320 F   0  0
   -4.3710   -1.4630    1.9490 F   0  0
   -3.1210    1.2560   -1.1760 C   0  0
   -2.7230    0.1990   -2.1440 C   0  0
   -4.1620    2.2030   -1.7710 C   0  0
   -1.9040    1.9920   -0.6150 C   0  0
   -1.3970    0.1090   -2.6110 C   0  0
   -3.6880   -0.7210   -2.5960 C   0  0
   -0.3540    1.0740   -2.1440 C   0  0
   -1.0430   -0.8990   -3.5290 C   0  0
   -3.3320   -1.7250   -3.5120 C   0  0
    0.3030    0.8490   -1.1560 O   0  0
   -0.1560    2.2230   -2.8590 N   0  0
   -2.0100   -1.8150   -3.9780 C   0  0
   -1.6740   -2.7680   -4.8440 F   0  0
    6.6900    0.1970    1.0450 H   0  0
    6.7520    0.2950    2.7810 H   0  0
    2.6070   -2.3150    1.9030 H   0  0
    8.1820   -1.7640    1.0140 H   0  0
    8.9280   -0.5590    2.0820 H   0  0
    8.0720   -1.9400    2.7620 H   0  0
    2.8950    2.6130    2.0840 H   0  0
   -0.1390   -1.8950    1.7910 H   0  0
   -0.0080    2.3770    1.9380 H   0  0
   -2.3810    1.4430    1.6470 H   0  0
   -2.5240    0.1070    2.7370 H   0  0
   -1.9340   -1.5120   -0.8010 H   0  0
   -4.4400    0.7710    0.4770 H   0  0
   -4.3770   -0.4420   -0.6810 H   0  0
   -5.0290    1.6640   -2.1560 H   0  0
   -3.7340    2.7770   -2.5940 H   0  0
   -4.5160    2.9100   -1.0190 H   0  0
   -1.1540    1.3030   -0.2300 H   0  0
   -2.1970    2.6560    0.1990 H   0  0
   -1.4340    2.5990   -1.3890 H   0  0
   -4.7070   -0.6560   -2.2420 H   0  0
   -0.0270   -0.9730   -3.8910 H   0  0
   -4.0800   -2.4280   -3.8530 H   0  0
   -0.6890    2.4320   -3.6800 H   0  0
    0.5370    2.8830   -2.5680 H   0  0
  1  2  2  0
  1  3  2  0
  1  4  1  0
  1  5  1  0
  4  6  2  0
  4  7  1  0
  5  8  1  0
  6  9  1  0
  7 10  2  0
  9 11  2  0
 10 12  1  0
 11 13  1  0
 12 14  2  0
 14 15  1  0
 15 16  1  0
 16 17  1  0
 16 18  1  0
 16 19  1  0
 18 20  1  0
 18 21  1  0
 18 22  1  0
 19 23  1  0
 23 24  1  0
 23 25  1  0
 23 26  1  0
 24 27  2  0
 24 28  1  0
 27 29  1  0
 27 30  1  0
 28 31  2  0
 29 32  2  0
 29 33  1  0
 30 34  2  0
 34 35  1  0
 10 11  1  0
 13 14  1  0
 31 34  1  0
  5 36  1  0
  5 37  1  0
  7 38  1  0
  8 39  1  0
  8 40  1  0
  8 41  1  0
  9 42  1  0
 12 43  1  0
 13 44  1  0
 15 45  1  0
 15 46  1  0
 17 47  1  0
 19 48  1  0
 19 49  1  0
 25 50  1  0
 25 51  1  0
 25 52  1  0
 26 53  1  0
 26 54  1  0
 26 55  1  0
 28 56  1  0
 30 57  1  0
 31 58  1  0
 33 59  1  0
 33 60  1  0
M  END
> <Name>
CHEMBL3358954

> <IC50 nM>
2000

> <Molecule_ChEMBL_ID>
CHEMBL3358954

> <Smiles>
CCS(=O)(=O)c1cc2cc(C[C@](O)(CC(C)(C)c3ccc(F)cc3C(N)=O)C(F)(F)F)[nH]c2cn1

$$$$
CHEMBL4207852
  SciTegic08162514323D

 64 67  0  0  1  0            999 V2000
   -5.5200    0.6090    1.4440 F   0  0
   -5.5900   -0.7170    1.7910 C   0  0
   -6.6490   -1.3010    1.1470 F   0  0
   -4.3050   -1.4200    1.4440 C   0  0
   -5.7830   -0.8360    3.3030 C   0  0
   -3.6350   -1.9510    2.2990 O   0  0
   -3.9080   -1.4530    0.1370 N   0  0
   -2.6560   -2.1370   -0.2190 C   0  0  2  0  0  0
   -1.4920   -1.1490   -0.2850 C   0  0  2  0  0  0
   -2.8200   -2.9420   -1.5100 C   0  0
   -0.3400   -1.8070   -0.7930 O   0  0
   -1.1860   -0.5740    1.0530 C   0  0
   -3.9060   -4.0140   -1.4020 C   0  0
   -2.9880   -2.0530   -2.7420 C   0  0
    0.7950   -1.1020   -0.8940 C   0  0
   -1.5820    0.7380    1.3620 C   0  0
   -0.4980   -1.3460    2.0080 C   0  0
    2.0450   -1.7770   -0.9240 C   0  0
    0.7400    0.3180   -0.9710 C   0  0
   -1.2910    1.2810    2.6250 C   0  0
   -0.2090   -0.8030    3.2720 C   0  0
    3.2420   -1.0200   -1.0310 C   0  0
    1.9340    1.0740   -1.0780 C   0  0
   -0.6050    0.5120    3.5800 C   0  0
    3.1500    0.3590   -1.1030 C   0  0
    4.5120   -1.6090   -1.0680 C   0  0
    4.4570    0.6420   -1.1910 N   0  0
    5.2720   -0.4550   -1.1740 N   0  0
    4.9650    1.9670   -1.2930 C   0  0
    4.4810    2.9570   -0.5040 C   0  0
    6.0350    2.2690   -2.2690 C   0  0
    4.9530    4.2540   -0.5800 N   0  0
    6.5080    3.5270   -2.3550 C   0  0
    5.9530    4.5820   -1.4780 C   0  0
    4.3830    5.2850    0.3070 C   0  0
    6.3750    5.7150   -1.5560 O   0  0
   -6.6990   -0.3480    3.6370 H   0  0
   -4.9490   -0.3810    3.8360 H   0  0
   -5.8380   -1.8830    3.6020 H   0  0
   -4.4630   -1.0140   -0.5680 H   0  0
   -2.4570   -2.9220    0.5100 H   0  0
   -1.7560   -0.3460   -0.9720 H   0  0
   -1.8710   -3.3830   -1.8100 H   0  0
   -3.9510   -4.6370   -2.2950 H   0  0
   -4.8870   -3.5570   -1.2650 H   0  0
   -3.7210   -4.6640   -0.5490 H   0  0
   -3.0640   -2.6580   -3.6440 H   0  0
   -3.8810   -1.4340   -2.6520 H   0  0
   -2.1330   -1.3890   -2.8570 H   0  0
   -2.1090    1.3360    0.6330 H   0  0
   -0.1910   -2.3540    1.7780 H   0  0
    2.0760   -2.8560   -0.8650 H   0  0
   -0.2130    0.8240   -0.9490 H   0  0
   -1.5960    2.2890    2.8640 H   0  0
    0.3180   -1.3930    4.0060 H   0  0
    1.9120    2.1520   -1.1390 H   0  0
   -0.3830    0.9280    4.5530 H   0  0
    4.8540   -2.6370   -1.0290 H   0  0
    3.6990    2.7110    0.2030 H   0  0
    6.4380    1.4960   -2.9100 H   0  0
    7.2890    3.7660   -3.0600 H   0  0
    3.6020    4.9280    0.9790 H   0  0
    3.9590    6.0860   -0.3010 H   0  0
    5.1780    5.7130    0.9160 H   0  0
  1  2  1  0
  2  3  1  0
  2  4  1  0
  2  5  1  0
  4  6  2  0
  4  7  1  0
  8  7  1  0
  8  9  1  0
  8 10  1  0
  9 11  1  0
  9 12  1  0
 10 13  1  0
 10 14  1  0
 11 15  1  0
 12 16  2  0
 12 17  1  0
 15 18  2  0
 15 19  1  0
 16 20  1  0
 17 21  2  0
 18 22  1  0
 19 23  2  0
 20 24  2  0
 22 25  2  0
 22 26  1  0
 25 27  1  0
 26 28  2  0
 27 29  1  0
 29 30  2  0
 29 31  1  0
 30 32  1  0
 31 33  2  0
 32 34  1  0
 32 35  1  0
 34 36  2  0
 21 24  1  0
 23 25  1  0
 27 28  1  0
 33 34  1  0
  5 37  1  0
  5 38  1  0
  5 39  1  0
  7 40  1  0
  8 41  1  0
  9 42  1  0
 10 43  1  0
 13 44  1  0
 13 45  1  0
 13 46  1  0
 14 47  1  0
 14 48  1  0
 14 49  1  0
 16 50  1  0
 17 51  1  0
 18 52  1  0
 19 53  1  0
 20 54  1  0
 21 55  1  0
 23 56  1  0
 24 57  1  0
 26 58  1  0
 30 59  1  0
 31 60  1  0
 33 61  1  0
 35 62  1  0
 35 63  1  0
 35 64  1  0
M  END
> <Name>
CHEMBL4207852

> <IC50 nM>
7

> <Molecule_ChEMBL_ID>
CHEMBL4207852

> <Smiles>
CC(C)[C@H](NC(=O)C(C)(F)F)[C@H](Oc1ccc2c(cnn2-c2ccc(=O)n(C)c2)c1)c1ccccc1

$$$$
CHEMBL4085580
  SciTegic08162514323D

 52 55  0  0  0  0            999 V2000
    2.0610    1.2870    1.5330 S   0  0
    2.9060    0.3010    2.1820 O   0  0
    1.1110    1.9100    2.4400 O   0  0
    1.2070    0.5200    0.3910 N   0  0
    3.0700    2.5200    0.8710 C   0  0
    0.0620   -0.1540    0.7250 C   0  0
    1.6620    0.5450   -1.0080 C   0  0
    2.5250    3.6740    0.2790 C   0  0
    4.4670    2.3630    0.9240 C   0  0
   -0.1310   -0.6030    2.0450 C   0  0
   -0.9220   -0.4020   -0.2500 C   0  0
    1.8690   -0.8260   -1.5430 C   0  0
    1.0960    3.8240    0.2290 C   0  0
    3.3670    4.6700   -0.2560 C   0  0
    5.3130    3.3540    0.3910 C   0  0
   -1.3070   -1.2950    2.3870 C   0  0
   -2.0960   -1.0940    0.0960 C   0  0
    1.1620   -1.2520   -2.6820 C   0  0
    2.7710   -1.6990   -0.9100 C   0  0
   -0.0610    3.9380    0.1930 N   0  0
    4.7640    4.5060   -0.1990 C   0  0
   -2.2910   -1.5410    1.4140 C   0  0
    1.3570   -2.5490   -3.1850 C   0  0
    2.9690   -2.9960   -1.4160 C   0  0
   -3.3930   -2.1890    1.7360 O   0  0
    2.2620   -3.4200   -2.5550 C   0  0
   -4.5220   -1.8110    1.1720 C   0  0
   -5.4860   -2.7680    0.8110 C   0  0
   -4.7660   -0.4470    0.9300 C   0  0
   -6.6920   -2.3630    0.2090 C   0  0
   -5.9690   -0.0410    0.3280 C   0  0
   -6.9320   -1.0000   -0.0310 C   0  0
    2.5960    1.1060   -1.0700 H   0  0
    0.9220    1.0650   -1.6150 H   0  0
    4.8830    1.4750    1.3790 H   0  0
    0.6130   -0.4220    2.8090 H   0  0
   -0.7910   -0.0660   -1.2690 H   0  0
    2.9470    5.5550   -0.7090 H   0  0
    6.3790    3.2150    0.4420 H   0  0
   -1.4510   -1.6370    3.4010 H   0  0
   -2.8480   -1.2810   -0.6560 H   0  0
    0.4670   -0.5860   -3.1720 H   0  0
    3.3180   -1.3790   -0.0350 H   0  0
    5.4140    5.2600   -0.6050 H   0  0
    0.8140   -2.8750   -4.0600 H   0  0
    3.6620   -3.6660   -0.9300 H   0  0
    2.4120   -4.4180   -2.9410 H   0  0
   -5.3050   -3.8160    0.9940 H   0  0
   -4.0270    0.2930    1.2050 H   0  0
   -7.4300   -3.1000   -0.0660 H   0  0
   -6.1540    1.0060    0.1430 H   0  0
   -7.8580   -0.6870   -0.4940 H   0  0
  1  2  2  0
  1  3  2  0
  1  4  1  0
  1  5  1  0
  4  6  1  0
  4  7  1  0
  5  8  2  0
  5  9  1  0
  6 10  2  0
  6 11  1  0
  7 12  1  0
  8 13  1  0
  8 14  1  0
  9 15  2  0
 10 16  1  0
 11 17  2  0
 12 18  2  0
 12 19  1  0
 13 20  3  0
 14 21  2  0
 16 22  2  0
 18 23  1  0
 19 24  2  0
 22 25  1  0
 23 26  2  0
 25 27  1  0
 27 28  2  0
 27 29  1  0
 28 30  1  0
 29 31  2  0
 30 32  2  0
 15 21  1  0
 17 22  1  0
 24 26  1  0
 31 32  1  0
  7 33  1  0
  7 34  1  0
  9 35  1  0
 10 36  1  0
 11 37  1  0
 14 38  1  0
 15 39  1  0
 16 40  1  0
 17 41  1  0
 18 42  1  0
 19 43  1  0
 21 44  1  0
 23 45  1  0
 24 46  1  0
 26 47  1  0
 28 48  1  0
 29 49  1  0
 30 50  1  0
 31 51  1  0
 32 52  1  0
M  END
> <Name>
CHEMBL4085580

> <IC50 nM>
30000

> <Molecule_ChEMBL_ID>
CHEMBL4085580

> <Smiles>
N#Cc1ccccc1S(=O)(=O)N(Cc1ccccc1)c1ccc(Oc2ccccc2)cc1

$$$$
CHEMBL363200
  SciTegic08162514323D

 62 65  0  0  1  0            999 V2000
    4.8830    5.6130    0.4770 O   0  0
    4.8670    4.4060    0.5250 C   0  0
    6.0820    3.8110    0.4920 O   0  0
    3.5940    3.6370    0.6130 C   0  0
    6.0980    2.3520    0.5450 N   0  0
    3.6890    2.2290    0.6600 C   0  0
    2.3320    4.2750    0.6480 C   0  0
    5.0450    1.6070    0.6190 C   0  0
    2.5120    1.4430    0.7420 C   0  0
    1.1580    3.4880    0.7340 C   0  0
    5.2210    0.1110    0.6660 C   0  0
    1.2380    2.0720    0.7810 C   0  0
    0.1230    1.3340    0.8610 N   0  0
    0.0080    0.1860    0.1290 C   0  0
    0.9100   -0.1700   -0.5940 O   0  0
   -1.2580   -0.6210    0.2400 C   0  0  1  0  0  0
   -1.2460   -1.6500   -0.7230 O   0  0
   -1.4240   -1.2580    1.6190 C   0  0
   -2.3930    0.3440   -0.1040 C   0  0
   -0.2360   -2.0700    1.9920 C   0  0
   -2.4320    0.7050   -1.5900 C   0  0
   -0.1890   -3.4400    1.6700 C   0  0
    0.8420   -1.4730    2.6700 C   0  0
   -3.1910   -0.5120   -1.9790 C   0  0
   -3.2290    1.9790   -1.8670 C   0  0
   -1.0410    0.7290   -2.2270 C   0  0
    0.9340   -4.2070    2.0210 C   0  0
    1.9650   -2.2420    3.0210 C   0  0
   -2.6150   -1.4530   -2.8520 C   0  0
   -4.4860   -0.7250   -1.4730 C   0  0
    2.0100   -3.6090    2.6990 C   0  0
   -3.3360   -2.6040   -3.2190 C   0  0
   -5.2050   -1.8770   -1.8400 C   0  0
   -4.6290   -2.8140   -2.7130 C   0  0
    2.2560    5.3520    0.6130 H   0  0
    2.5860    0.3650    0.7770 H   0  0
    0.1990    3.9880    0.7620 H   0  0
    6.2790   -0.1410    0.5980 H   0  0
    4.7730   -0.2870    1.5760 H   0  0
    4.7130   -0.3480   -0.1820 H   0  0
   -0.6250    1.6250    1.4570 H   0  0
   -0.4410   -2.1700   -0.5760 H   0  0
   -2.3160   -1.8830    1.6500 H   0  0
   -1.5940   -0.4940    2.3790 H   0  0
   -2.3340    1.2440    0.5100 H   0  0
   -3.3540   -0.0590    0.2190 H   0  0
   -1.0140   -3.9040    1.1500 H   0  0
    0.8140   -0.4220    2.9200 H   0  0
   -4.1970    1.9710   -1.3650 H   0  0
   -3.4100    2.0960   -2.9360 H   0  0
   -2.6840    2.8570   -1.5240 H   0  0
   -0.5370   -0.2340   -2.1390 H   0  0
   -0.4120    1.4790   -1.7500 H   0  0
   -1.1070    0.9730   -3.2870 H   0  0
    0.9690   -5.2580    1.7730 H   0  0
    2.7930   -1.7810    3.5410 H   0  0
   -1.6210   -1.2950   -3.2440 H   0  0
   -4.9340   -0.0080   -0.8010 H   0  0
    2.8730   -4.1990    2.9690 H   0  0
   -2.8930   -3.3240   -3.8910 H   0  0
   -6.1990   -2.0390   -1.4510 H   0  0
   -5.1820   -3.6990   -2.9960 H   0  0
  1  2  2  0
  2  3  1  0
  2  4  1  0
  3  5  1  0
  4  6  2  0
  4  7  1  0
  5  8  2  0
  6  9  1  0
  7 10  2  0
  8 11  1  0
  9 12  2  0
 12 13  1  0
 13 14  1  0
 14 15  2  0
 14 16  1  0
 16 17  1  0
 16 18  1  0
 16 19  1  0
 18 20  1  0
 19 21  1  0
 20 22  2  0
 20 23  1  0
 21 24  1  0
 21 25  1  0
 21 26  1  0
 22 27  1  0
 23 28  2  0
 24 29  2  0
 24 30  1  0
 27 31  2  0
 29 32  1  0
 30 33  2  0
 32 34  2  0
  6  8  1  0
 10 12  1  0
 28 31  1  0
 33 34  1  0
  7 35  1  0
  9 36  1  0
 10 37  1  0
 11 38  1  0
 11 39  1  0
 11 40  1  0
 13 41  1  0
 17 42  1  0
 18 43  1  0
 18 44  1  0
 19 45  1  0
 19 46  1  0
 22 47  1  0
 23 48  1  0
 25 49  1  0
 25 50  1  0
 25 51  1  0
 26 52  1  0
 26 53  1  0
 26 54  1  0
 27 55  1  0
 28 56  1  0
 29 57  1  0
 30 58  1  0
 31 59  1  0
 32 60  1  0
 33 61  1  0
 34 62  1  0
M  END
> <Name>
CHEMBL363200

> <IC50 nM>
7

> <Molecule_ChEMBL_ID>
CHEMBL363200

> <Smiles>
Cc1noc(=O)c2ccc(NC(=O)C(O)(Cc3ccccc3)CC(C)(C)c3ccccc3)cc12

$$$$
CHEMBL304839
  SciTegic08162514323D

 54 56  0  0  0  0            999 V2000
   -1.3950   -3.1720   -3.1860 S   0  0
   -0.5410   -4.0290   -3.9900 O   0  0
   -2.0490   -3.8750   -2.0960 O   0  0
   -0.4570   -2.0230   -2.5310 N   0  0
   -2.6470   -2.4530   -4.2400 C   0  0
   -0.8480   -1.3960   -1.3750 C   0  0
    0.0940   -0.7580   -0.5310 C   0  0
   -2.2130   -1.3940   -1.0310 C   0  0
   -0.3480   -0.1210    0.6520 C   0  0
    1.5450   -0.7560   -0.8910 C   0  0
   -2.6450   -0.7620    0.1450 C   0  0
    0.5330    0.5080    1.4940 N   0  0
   -1.7170   -0.1270    0.9840 C   0  0
    1.2850    1.6930    1.0570 C   0  0
    0.7400   -0.0020    2.8580 C   0  0
    0.3770    2.7740    0.5880 C   0  0
    1.5290   -1.2620    2.8580 C   0  0
    0.2480    3.0390   -0.7870 C   0  0
   -0.3540    3.5310    1.5220 C   0  0
    0.8710   -2.5040    2.8580 C   0  0
    2.9360   -1.2110    2.8580 C   0  0
   -0.6110    4.0610   -1.2280 C   0  0
   -1.2110    4.5530    1.0800 C   0  0
    1.6190   -3.6950    2.8580 C   0  0
    3.6820   -2.4020    2.8580 C   0  0
   -1.3400    4.8190   -0.2950 C   0  0
   -0.7480    4.3420   -2.6820 C   0  0
    3.0230   -3.6450    2.8580 C   0  0
   -1.6330    5.3710   -2.8670 F   0  0
   -1.2110    3.2210   -3.3220 F   0  0
    0.4750    4.6900   -3.1970 F   0  0
    0.4040   -1.7730   -2.9710 H   0  0
   -3.3360   -3.1760   -4.6780 H   0  0
   -2.1680   -1.9140   -5.0590 H   0  0
   -3.2360   -1.7340   -3.6680 H   0  0
   -2.9450   -1.8770   -1.6620 H   0  0
    1.7500    0.0660   -1.5760 H   0  0
    2.1440   -0.7050    0.0180 H   0  0
    1.7950   -1.6860   -1.4020 H   0  0
   -3.6930   -0.7640    0.4040 H   0  0
   -2.0720    0.3540    1.8850 H   0  0
    1.9610    1.4120    0.2480 H   0  0
    1.8910    2.0610    1.8850 H   0  0
   -0.2290   -0.1800    3.3240 H   0  0
    1.2600    0.7540    3.4470 H   0  0
    0.8090    2.4570   -1.5040 H   0  0
   -0.2580    3.3320    2.5780 H   0  0
   -0.2070   -2.5510    2.8580 H   0  0
    3.4470   -0.2600    2.8580 H   0  0
   -1.7720    5.1350    1.7970 H   0  0
    1.1130   -4.6500    2.8580 H   0  0
    4.7600   -2.3630    2.8580 H   0  0
   -2.0020    5.6060   -0.6290 H   0  0
    3.5960   -4.5590    2.8580 H   0  0
  1  2  2  0
  1  3  2  0
  1  4  1  0
  1  5  1  0
  4  6  1  0
  6  7  2  0
  6  8  1  0
  7  9  1  0
  7 10  1  0
  8 11  2  0
  9 12  1  0
  9 13  2  0
 12 14  1  0
 12 15  1  0
 14 16  1  0
 15 17  1  0
 16 18  2  0
 16 19  1  0
 17 20  2  0
 17 21  1  0
 18 22  1  0
 19 23  2  0
 20 24  1  0
 21 25  2  0
 22 26  2  0
 22 27  1  0
 24 28  2  0
 27 29  1  0
 27 30  1  0
 27 31  1  0
 11 13  1  0
 23 26  1  0
 25 28  1  0
  4 32  1  0
  5 33  1  0
  5 34  1  0
  5 35  1  0
  8 36  1  0
 10 37  1  0
 10 38  1  0
 10 39  1  0
 11 40  1  0
 13 41  1  0
 14 42  1  0
 14 43  1  0
 15 44  1  0
 15 45  1  0
 18 46  1  0
 19 47  1  0
 20 48  1  0
 21 49  1  0
 23 50  1  0
 24 51  1  0
 25 52  1  0
 26 53  1  0
 28 54  1  0
M  END
> <Name>
CHEMBL304839

> <IC50 nM>
130

> <Molecule_ChEMBL_ID>
CHEMBL304839

> <Smiles>
Cc1c(NS(C)(=O)=O)cccc1N(Cc1ccccc1)Cc1cccc(C(F)(F)F)c1

$$$$
CHEMBL1276308
  SciTegic08162514323D

 67 71  0  0  1  0            999 V2000
   -4.0630   -1.2400    3.9920 O   0  0
   -3.6430   -0.9260    2.9020 C   0  0
   -3.7500    0.4670    2.4410 C   0  0
   -2.9920   -1.9450    1.9960 C   0  0
   -2.9100    0.9650    1.5140 C   0  0
   -2.0820   -1.3730    0.8930 C   0  0
   -1.8460    0.1290    0.9240 C   0  0
   -2.9900    2.4020    1.0680 C   0  0
   -0.6990    0.6990    0.4650 C   0  0
   -1.6020    3.0160    1.2600 C   0  0
    0.4800   -0.1290   -0.0590 C   0  0  1  0  0  0
   -0.4960    2.2170    0.5230 C   0  0  1  0  0  0
    0.1250   -1.0510   -1.1840 C   0  0
    1.7340    0.7070   -0.4360 C   0  0
    0.8400    2.4140    1.2560 C   0  0  1  0  0  0
    0.6760   -2.3440   -1.2340 C   0  0
   -0.7580   -0.6230   -2.1910 C   0  0
    2.0170    2.0180    0.3400 C   0  0  1  0  0  0
    1.3400    3.7250    1.8630 C   0  0
    0.3440   -3.2090   -2.2910 C   0  0
   -1.0920   -1.4880   -3.2480 C   0  0
    3.1350    2.0450    1.4200 C   0  0  2  0  0  0
    2.2660    3.1470   -0.6930 C   0  0
    2.7850    3.3300    2.2290 C   0  0
   -0.5430   -2.7830   -3.3010 C   0  0
    4.4240    2.1540    0.8440 O   0  0
    3.1250    0.8360    2.2700 C   0  0
   -0.8670   -3.6270   -4.3300 N   0  0
    3.0960   -0.1410    2.9510 C   0  0
    0.0600   -4.6800   -4.7680 C   0  0
   -2.1600   -3.4860   -5.0160 C   0  0
    3.0370   -1.3460    3.7770 C   0  0
   -4.5140    1.0960    2.8710 H   0  0
   -2.4160   -2.6460    2.6040 H   0  0
   -3.7790   -2.5390    1.5330 H   0  0
   -1.1390   -1.9120    0.9610 H   0  0
   -2.5100   -1.6210   -0.0800 H   0  0
   -3.7370    2.9550    1.6390 H   0  0
   -3.2890    2.4490    0.0200 H   0  0
   -1.4010    3.0570    2.3320 H   0  0
   -1.5980    4.0530    0.9200 H   0  0
    0.7790   -0.7790    0.7640 H   0  0
   -0.4280    2.6000   -0.4940 H   0  0
    2.6170    0.0700   -0.4040 H   0  0
    1.6310    0.9730   -1.4900 H   0  0
    0.7670    1.7520    2.1090 H   0  0
    1.3550   -2.6760   -0.4650 H   0  0
   -1.1840    0.3690   -2.1560 H   0  0
    0.7670    4.0410    2.7250 H   0  0
    1.3140    4.5330    1.1480 H   0  0
    0.7750   -4.1990   -2.3130 H   0  0
   -1.7740   -1.1420   -4.0140 H   0  0
    2.8500    3.9630   -0.2710 H   0  0
    1.3220    3.5590   -1.0490 H   0  0
    2.8090    2.7640   -1.5590 H   0  0
    3.4390    4.1580    1.9940 H   0  0
    2.8710    3.1760    3.2950 H   0  0
    5.0450    2.3520    1.5630 H   0  0
    1.0940   -4.5410   -4.4490 H   0  0
    0.0510   -4.7380   -5.8560 H   0  0
   -0.2810   -5.6410   -4.3790 H   0  0
   -2.9320   -2.9780   -4.4380 H   0  0
   -2.5350   -4.4750   -5.2790 H   0  0
   -2.0160   -2.9260   -5.9400 H   0  0
    3.8280   -1.3460    4.5290 H   0  0
    2.0760   -1.4080    4.2910 H   0  0
    3.1520   -2.2360    3.1600 H   0  0
  1  2  2  0
  2  3  1  0
  2  4  1  0
  3  5  2  0
  4  6  1  0
  5  7  1  0
  5  8  1  0
  7  9  2  0
  8 10  1  0
  9 11  1  0
  9 12  1  0
 11 13  1  0
 11 14  1  0
 12 15  1  0
 13 16  2  0
 13 17  1  0
 14 18  1  0
 15 19  1  0
 16 20  1  0
 17 21  2  0
 18 22  1  0
 18 23  1  0
 19 24  1  0
 20 25  2  0
 22 26  1  0
 22 27  1  0
 25 28  1  0
 27 29  3  0
 28 30  1  0
 28 31  1  0
 29 32  1  0
  6  7  1  0
 12 10  1  0
 15 18  1  0
 21 25  1  0
 22 24  1  0
  3 33  1  0
  4 34  1  0
  4 35  1  0
  6 36  1  0
  6 37  1  0
  8 38  1  0
  8 39  1  0
 10 40  1  0
 10 41  1  0
 11 42  1  0
 12 43  1  0
 14 44  1  0
 14 45  1  0
 15 46  1  0
 16 47  1  0
 17 48  1  0
 19 49  1  0
 19 50  1  0
 20 51  1  0
 21 52  1  0
 23 53  1  0
 23 54  1  0
 23 55  1  0
 24 56  1  0
 24 57  1  0
 26 58  1  0
 30 59  1  0
 30 60  1  0
 30 61  1  0
 31 62  1  0
 31 63  1  0
 31 64  1  0
 32 65  1  0
 32 66  1  0
 32 67  1  0
M  END
> <Name>
CHEMBL1276308

> <IC50 nM>
1.1

> <Molecule_ChEMBL_ID>
CHEMBL1276308

> <Smiles>
CC#C[C@]1(O)CC[C@H]2[C@@H]3CCC4=CC(=O)CCC4=C3[C@@H](c3ccc(N(C)C)cc3)C[C@@]21C

$$$$
CHEMBL182961
  SciTegic08162514323D

 81 86  0  0  1  0            999 V2000
   -2.0860    4.7460   -2.8540 O   0  0
   -2.0720    5.2360   -1.7480 C   0  0
   -1.1290    4.8810   -0.8550 O   0  0
   -3.1680    6.2310   -1.4160 C   0  0
   -0.7930    5.7790    0.2090 C   0  0  1  0  0  0
   -2.8480    7.1700   -0.2480 C   0  0  1  0  0  0
   -2.0410    6.4300    0.8240 C   0  0
    0.0230    5.0100    1.2480 C   0  0
   -2.1020    8.2770   -0.7230 O   0  0
   -0.6780    3.7890    1.6700 N   0  0
   -0.4650    2.5960    1.0310 C   0  0
   -1.6190    3.8610    2.7970 C   0  0
   -1.0060    1.4060    1.5570 C   0  0
    0.2970    2.5550   -0.1540 C   0  0
   -0.7870    0.1840    0.9000 C   0  0
    0.5140    1.3320   -0.8090 C   0  0
   -0.0270    0.1440   -0.2810 C   0  0
    0.2030   -1.1430   -0.9710 C   0  0  2  0  0  0
   -0.3960   -2.3130   -0.1880 C   0  0
    1.6760   -1.3890   -1.3550 C   0  0
   -1.6250   -2.8240   -0.4450 C   0  0
    0.4860   -2.8500    0.9490 C   0  0  2  0  0  0
    2.5680   -1.7170   -0.1540 C   0  0  1  0  0  0
   -2.1760   -3.9400    0.3670 C   0  0
   -2.4840   -2.2580   -1.5760 C   0  0
    1.9510   -2.9490    0.5140 C   0  0  1  0  0  0
    0.1020   -4.2850    1.3550 C   0  0
    4.0200   -2.2250   -0.4320 C   0  0  2  0  0  0
    2.5960   -0.5430    0.8460 C   0  0
   -3.3540   -4.5290    0.0660 C   0  0
   -1.3970   -4.4470    1.5590 C   0  0
   -3.6820   -3.1060   -2.0490 C   0  0
    3.0430   -3.2810    1.5450 C   0  0
    4.8790   -1.1760   -0.8130 O   0  0
    4.1020   -3.3520   -1.3810 C   0  0
    4.3630   -2.7400    0.9790 C   0  0
   -4.1970   -4.1330   -1.0700 C   0  0
    4.1660   -4.2950   -2.1020 C   0  0
   -5.2910   -4.6170   -1.2170 O   0  0
    4.2560   -5.4900   -2.9390 C   0  0
   -4.0550    5.6540   -1.1520 H   0  0
   -3.4450    6.7930   -2.3110 H   0  0
   -0.1540    6.5570   -0.2150 H   0  0
   -3.7680    7.5720    0.1760 H   0  0
   -2.6680    5.6580    1.2770 H   0  0
   -1.7600    7.1090    1.6290 H   0  0
    1.0020    4.7420    0.8480 H   0  0
    0.2190    5.6330    2.1210 H   0  0
   -2.0350    8.9100    0.0080 H   0  0
   -1.7790    4.8630    3.1950 H   0  0
   -1.2540    3.2340    3.6090 H   0  0
   -2.5860    3.4710    2.4810 H   0  0
   -1.5920    1.4180    2.4650 H   0  0
    0.7210    3.4570   -0.5720 H   0  0
   -1.2050   -0.7250    1.3090 H   0  0
    1.0980    1.3070   -1.7170 H   0  0
   -0.2970   -1.0180   -1.9390 H   0  0
    2.0660   -0.5120   -1.8650 H   0  0
    1.7270   -2.1640   -2.0960 H   0  0
    0.3890   -2.1880    1.8130 H   0  0
   -1.8730   -2.1230   -2.4710 H   0  0
   -2.8380   -1.2700   -1.2870 H   0  0
    1.9430   -3.7340   -0.2300 H   0  0
    0.6310   -4.6000    2.2500 H   0  0
    0.4060   -4.9810    0.5740 H   0  0
    3.3460   -0.6900    1.6230 H   0  0
    1.6270   -0.4300    1.3340 H   0  0
    2.8240    0.3930    0.3360 H   0  0
   -3.7110   -5.3480    0.6720 H   0  0
   -1.7190   -3.8890    2.4390 H   0  0
   -1.6310   -5.4940    1.7560 H   0  0
   -3.3970   -3.6350   -2.9610 H   0  0
   -4.5000   -2.4450   -2.3360 H   0  0
    3.0960   -4.3440    1.6950 H   0  0
    2.8560   -2.8280    2.5060 H   0  0
    5.7870   -1.5080   -0.7320 H   0  0
    4.7380   -1.9380    1.6000 H   0  0
    5.1450   -3.4900    0.9670 H   0  0
    5.2890   -5.8180   -3.0290 H   0  0
    3.8460   -5.3240   -3.9280 H   0  0
    3.6900   -6.3030   -2.4770 H   0  0
  1  2  2  0
  2  3  1  0
  2  4  1  0
  3  5  1  0
  4  6  1  0
  5  7  1  0
  5  8  1  0
  6  9  1  0
  8 10  1  0
 10 11  1  0
 10 12  1  0
 11 13  2  0
 11 14  1  0
 13 15  1  0
 14 16  2  0
 15 17  2  0
 18 17  1  0
 18 19  1  0
 18 20  1  0
 19 21  2  0
 19 22  1  0
 20 23  1  0
 21 24  1  0
 21 25  1  0
 22 26  1  0
 22 27  1  0
 23 28  1  0
 23 29  1  0
 24 30  2  0
 24 31  1  0
 25 32  1  0
 26 33  1  0
 28 34  1  0
 28 35  1  0
 28 36  1  0
 30 37  1  0
 35 38  3  0
 37 39  2  0
 38 40  1  0
  6  7  1  0
 16 17  1  0
 23 26  1  0
 27 31  1  0
 32 37  1  0
 33 36  1  0
  4 41  1  0
  4 42  1  0
  5 43  1  0
  6 44  1  0
  7 45  1  0
  7 46  1  0
  8 47  1  0
  8 48  1  0
  9 49  1  0
 12 50  1  0
 12 51  1  0
 12 52  1  0
 13 53  1  0
 14 54  1  0
 15 55  1  0
 16 56  1  0
 18 57  1  0
 20 58  1  0
 20 59  1  0
 22 60  1  0
 25 61  1  0
 25 62  1  0
 26 63  1  0
 27 64  1  0
 27 65  1  0
 29 66  1  0
 29 67  1  0
 29 68  1  0
 30 69  1  0
 31 70  1  0
 31 71  1  0
 32 72  1  0
 32 73  1  0
 33 74  1  0
 33 75  1  0
 34 76  1  0
 36 77  1  0
 36 78  1  0
 40 79  1  0
 40 80  1  0
 40 81  1  0
M  END
> <Name>
CHEMBL182961

> <IC50 nM>
2.3

> <Molecule_ChEMBL_ID>
CHEMBL182961

> <Smiles>
CC#C[C@]1(O)CC[C@H]2[C@@H]3CCC4=CC(=O)CCC4=C3[C@@H](c3ccc(N(C)C[C@@H]4C[C@@H](O)CC(=O)O4)cc3)C[C@@]21C

$$$$
CHEMBL307149
  SciTegic08162514323D

 51 53  0  0  0  0            999 V2000
    3.4380    3.7190   -1.8030 Br  0  0
    1.5800    3.4550   -1.9690 C   0  0
    1.0410    2.1560   -1.8790 C   0  0
    0.7250    4.5530   -2.1840 C   0  0
   -0.3460    1.9590   -2.0020 C   0  0
   -0.6600    4.3540   -2.3070 C   0  0
   -1.1950    3.0590   -2.2150 C   0  0
   -0.9120    0.5880   -1.9040 C   0  0
   -1.0920    0.1740   -0.5060 N   0  0
   -0.1110   -0.5180    0.1600 C   0  0
   -2.3480    0.5140    0.1820 C   0  0
    0.1150   -1.8930   -0.0880 C   0  0
    0.6800    0.1660    1.1030 C   0  0
   -2.0960    1.2600    1.4430 C   0  0
    1.1370   -2.5700    0.6190 C   0  0
   -0.7210   -2.6250   -1.0900 C   0  0
    1.6920   -0.5140    1.7990 C   0  0
   -1.9490    2.6580    1.4160 C   0  0
   -2.0040    0.5660    2.6640 C   0  0
    1.3870   -3.9040    0.4060 N   0  0
    1.9200   -1.8750    1.5590 C   0  0
   -1.7130    3.3630    2.6090 C   0  0
   -1.7670    1.2730    3.8550 C   0  0
    1.7950   -4.4260   -1.0720 S   0  0
   -1.6210    2.6700    3.8280 C   0  0
    0.6560   -5.1520   -1.6090 O   0  0
    2.1560   -3.2620   -1.8610 O   0  0
    3.1990   -5.5310   -0.9940 C   0  0
    1.6880    1.3070   -1.7170 H   0  0
    1.1210    5.5570   -2.2540 H   0  0
   -1.3140    5.1970   -2.4710 H   0  0
   -2.2620    2.9120   -2.3110 H   0  0
   -1.8750    0.5550   -2.4140 H   0  0
   -0.2460   -0.1170   -2.4040 H   0  0
   -2.8920   -0.4040    0.4040 H   0  0
   -2.9670    1.1170   -0.4810 H   0  0
    0.5220    1.2150    1.3050 H   0  0
   -0.9100   -3.6390   -0.7340 H   0  0
   -1.6390   -2.0670   -1.2750 H   0  0
   -0.1800   -2.6970   -2.0310 H   0  0
    2.2950    0.0160    2.5210 H   0  0
   -2.0190    3.1950    0.4820 H   0  0
   -2.1150   -0.5080    2.6910 H   0  0
    1.3150   -4.5530    1.1640 H   0  0
    2.7050   -2.3770    2.1070 H   0  0
   -1.6010    4.4360    2.5880 H   0  0
   -1.6970    0.7400    4.7930 H   0  0
   -1.4390    3.2130    4.7460 H   0  0
    3.5200   -5.9160   -1.9630 H   0  0
    2.9570   -6.3830   -0.3590 H   0  0
    4.0450   -5.0120   -0.5470 H   0  0
  1  2  1  0
  2  3  2  0
  2  4  1  0
  3  5  1  0
  4  6  2  0
  5  7  2  0
  5  8  1  0
  8  9  1  0
  9 10  1  0
  9 11  1  0
 10 12  2  0
 10 13  1  0
 11 14  1  0
 12 15  1  0
 12 16  1  0
 13 17  2  0
 14 18  2  0
 14 19  1  0
 15 20  1  0
 15 21  2  0
 18 22  1  0
 19 23  2  0
 20 24  1  0
 22 25  2  0
 24 26  2  0
 24 27  2  0
 24 28  1  0
  6  7  1  0
 17 21  1  0
 23 25  1  0
  3 29  1  0
  4 30  1  0
  6 31  1  0
  7 32  1  0
  8 33  1  0
  8 34  1  0
 11 35  1  0
 11 36  1  0
 13 37  1  0
 16 38  1  0
 16 39  1  0
 16 40  1  0
 17 41  1  0
 18 42  1  0
 19 43  1  0
 20 44  1  0
 21 45  1  0
 22 46  1  0
 23 47  1  0
 25 48  1  0
 28 49  1  0
 28 50  1  0
 28 51  1  0
M  END
> <Name>
CHEMBL307149

> <IC50 nM>
9100

> <Molecule_ChEMBL_ID>
CHEMBL307149

> <Smiles>
Cc1c(NS(C)(=O)=O)cccc1N(Cc1ccccc1)Cc1cccc(Br)c1

$$$$
CHEMBL3094482
  SciTegic08162514323D

 55 56  0  0  1  0            999 V2000
    1.6210   -1.1270   -0.4200 S   0  0
    2.4820   -2.1020    0.2310 O   0  0
    1.2990   -1.4750   -1.7930 O   0  0
    0.1150   -1.1640    0.4490 N   0  0
    2.4300    0.4000   -0.4200 C   0  0
   -0.6740   -2.3830    0.3970 C   0  0  2  0  0  0
    3.8380    0.4490   -0.4200 C   0  0
    1.6820    1.5920   -0.4200 C   0  0
   -2.0780   -2.1370    0.9490 C   0  0
    0.0510   -3.5240    1.1130 C   0  0
    4.4940    1.6930   -0.4200 C   0  0
    4.6350   -0.8050   -0.4200 C   0  0
    2.3420    2.8340   -0.4200 C   0  0
    0.1950    1.5470   -0.4200 C   0  0
   -2.7890   -1.0740    0.1880 C   0  0
    0.6040   -4.5710    0.1470 C   0  0
    3.7480    2.8850   -0.4200 C   0  0
   -3.0350    0.1850    0.7720 C   0  0
   -3.2150   -1.3360   -1.1250 C   0  0
    4.4430    4.1990   -0.4200 C   0  0
   -3.7090    1.1800    0.0330 C   0  0
   -2.5820    0.4650    2.1620 C   0  0
   -3.8870   -0.3440   -1.8570 C   0  0
   -4.1370    0.9140   -1.2830 C   0  0
   -3.9750    2.5140    0.6390 C   0  0
   -4.7680    1.8380   -1.9820 O   0  0
    0.2830   -0.9340    1.4400 H   0  0
   -0.7110   -2.5650   -0.6780 H   0  0
   -2.0350   -1.8610    2.0040 H   0  0
   -2.6680   -3.0550    0.9280 H   0  0
    0.8440   -3.1330    1.7520 H   0  0
   -0.6000   -3.9870    1.8560 H   0  0
    5.5740    1.7320   -0.4200 H   0  0
    4.2870   -1.5570   -1.1290 H   0  0
    4.6110   -1.2520    0.5740 H   0  0
    5.6720   -0.5760   -0.6580 H   0  0
    1.7680    3.7500   -0.4200 H   0  0
   -0.2300    0.7990   -1.0900 H   0  0
   -0.1970    2.5190   -0.7150 H   0  0
   -0.1600    1.3340    0.5880 H   0  0
    1.1580   -5.3380    0.6860 H   0  0
   -0.2050   -5.0430   -0.4120 H   0  0
    1.2810   -4.1120   -0.5720 H   0  0
   -3.0290   -2.2990   -1.5760 H   0  0
    3.7750    5.0600   -0.4200 H   0  0
    5.0820    4.2710   -1.3010 H   0  0
    5.0820    4.2710    0.4610 H   0  0
   -3.1350   -0.0760    2.9320 H   0  0
   -2.6820    1.5290    2.3710 H   0  0
   -1.5290    0.2030    2.2620 H   0  0
   -4.2130   -0.5490   -2.8650 H   0  0
   -4.5660    3.1820    0.0120 H   0  0
   -3.0290    3.0100    0.8540 H   0  0
   -4.5060    2.3870    1.5820 H   0  0
   -5.0530    1.6370   -2.8830 H   0  0
  1  2  2  0
  1  3  2  0
  1  4  1  0
  1  5  1  0
  6  4  1  0
  5  7  2  0
  5  8  1  0
  6  9  1  0
  6 10  1  0
  7 11  1  0
  7 12  1  0
  8 13  2  0
  8 14  1  0
  9 15  1  0
 10 16  1  0
 11 17  2  0
 15 18  2  0
 15 19  1  0
 17 20  1  0
 18 21  1  0
 18 22  1  0
 19 23  2  0
 21 24  2  0
 21 25  1  0
 24 26  1  0
 13 17  1  0
 23 24  1  0
  4 27  1  0
  6 28  1  0
  9 29  1  0
  9 30  1  0
 10 31  1  0
 10 32  1  0
 11 33  1  0
 12 34  1  0
 12 35  1  0
 12 36  1  0
 13 37  1  0
 14 38  1  0
 14 39  1  0
 14 40  1  0
 16 41  1  0
 16 42  1  0
 16 43  1  0
 19 44  1  0
 20 45  1  0
 20 46  1  0
 20 47  1  0
 22 48  1  0
 22 49  1  0
 22 50  1  0
 23 51  1  0
 25 52  1  0
 25 53  1  0
 25 54  1  0
 26 55  1  0
M  END
> <Name>
CHEMBL3094482

> <IC50 nM>
5

> <Molecule_ChEMBL_ID>
CHEMBL3094482

> <Smiles>
CCC(Cc1ccc(O)c(C)c1C)NS(=O)(=O)c1c(C)cc(C)cc1C

$$$$
CHEMBL3094483
  SciTegic08162514323D

 58 59  0  0  1  0            999 V2000
    1.3520   -1.4880    2.6490 S   0  0
   -0.0040   -1.2870    3.1310 O   0  0
    2.1190   -2.4120    3.4670 O   0  0
    1.1990   -2.2420    1.0880 N   0  0
    2.1620    0.0390    2.6490 C   0  0
    0.4450   -1.5430    0.0630 C   0  0  2  0  0  0
    3.5680    0.0900    2.6490 C   0  0
    1.4140    1.2310    2.6490 C   0  0
   -1.0530   -1.7850    0.2400 C   0  0
    0.9450   -1.9300   -1.3280 C   0  0
    4.2250    1.3320    2.6490 C   0  0
    4.3650   -1.1660    2.6490 C   0  0
    2.0740    2.4730    2.6490 C   0  0
   -0.0720    1.1860    2.6490 C   0  0
   -1.8480   -1.0940   -0.8080 C   0  0
    2.2810   -1.2730   -1.6790 C   0  0
    3.4790    2.5260    2.6490 C   0  0
   -2.5020   -1.8420   -1.8030 C   0  0
   -1.9450    0.3090   -0.8060 C   0  0
    4.1760    3.8380    2.6490 C   0  0
   -3.2560   -1.1870   -2.7950 C   0  0
   -2.6970    0.9630   -1.7970 C   0  0
   -3.3560    0.2190   -2.7950 C   0  0
   -3.9430   -1.9900   -3.8420 C   0  0
   -2.7930    2.4470   -1.7850 C   0  0
   -4.0610    0.8320   -3.7260 O   0  0
   -5.4750    0.7110   -3.6800 C   0  0
    2.1370   -2.4490    0.7150 H   0  0
    0.6970   -0.5060    0.2870 H   0  0
   -1.3830   -1.4550    1.2250 H   0  0
   -1.2750   -2.8530    0.2210 H   0  0
    1.0140   -3.0140   -1.4260 H   0  0
    0.1950   -1.7050   -2.0840 H   0  0
    5.3050    1.3730    2.6490 H   0  0
    3.9940   -1.9330    1.9710 H   0  0
    4.3790   -1.5880    3.6550 H   0  0
    5.3950   -0.9430    2.3690 H   0  0
    1.5000    3.3890    2.6490 H   0  0
   -0.5000    0.5120    1.9070 H   0  0
   -0.4670    2.1840    2.4590 H   0  0
   -0.4260    0.8690    3.6310 H   0  0
    2.5680   -1.5100   -2.7050 H   0  0
    2.2190   -0.1890   -1.5700 H   0  0
    3.0720   -1.6290   -1.0190 H   0  0
   -2.4280   -2.9200   -1.8040 H   0  0
   -1.4430    0.8830   -0.0410 H   0  0
    3.5080    4.6990    2.6550 H   0  0
    4.8090    3.9120    1.7660 H   0  0
    4.8160    3.9080    3.5280 H   0  0
   -4.0650   -1.4740   -4.7930 H   0  0
   -4.9340   -2.2730   -3.4880 H   0  0
   -3.3810   -2.9040   -4.0250 H   0  0
   -2.0920    2.9360   -1.1090 H   0  0
   -3.8010    2.7440   -1.4900 H   0  0
   -2.6110    2.8320   -2.7870 H   0  0
   -5.8850   -0.2870   -3.8280 H   0  0
   -5.8990    1.3630   -4.4430 H   0  0
   -5.8170    1.0700   -2.7070 H   0  0
  1  2  2  0
  1  3  2  0
  1  4  1  0
  1  5  1  0
  6  4  1  0
  5  7  2  0
  5  8  1  0
  6  9  1  0
  6 10  1  0
  7 11  1  0
  7 12  1  0
  8 13  2  0
  8 14  1  0
  9 15  1  0
 10 16  1  0
 11 17  2  0
 15 18  2  0
 15 19  1  0
 17 20  1  0
 18 21  1  0
 19 22  2  0
 21 23  2  0
 21 24  1  0
 22 25  1  0
 23 26  1  0
 26 27  1  0
 13 17  1  0
 22 23  1  0
  4 28  1  0
  6 29  1  0
  9 30  1  0
  9 31  1  0
 10 32  1  0
 10 33  1  0
 11 34  1  0
 12 35  1  0
 12 36  1  0
 12 37  1  0
 13 38  1  0
 14 39  1  0
 14 40  1  0
 14 41  1  0
 16 42  1  0
 16 43  1  0
 16 44  1  0
 18 45  1  0
 19 46  1  0
 20 47  1  0
 20 48  1  0
 20 49  1  0
 24 50  1  0
 24 51  1  0
 24 52  1  0
 25 53  1  0
 25 54  1  0
 25 55  1  0
 27 56  1  0
 27 57  1  0
 27 58  1  0
M  END
> <Name>
CHEMBL3094483

> <IC50 nM>
2000

> <Molecule_ChEMBL_ID>
CHEMBL3094483

> <Smiles>
CCC(Cc1cc(C)c(OC)c(C)c1)NS(=O)(=O)c1c(C)cc(C)cc1C

$$$$
CHEMBL3093447
  SciTegic08162514323D

 52 54  0  0  1  0            999 V2000
   -0.0350   -1.3890   -0.0620 S   0  0
   -0.3010   -0.8870    1.2740 O   0  0
   -1.1190   -1.1390   -0.9960 O   0  0
    1.3260   -0.4780   -0.6540 N   0  0
    0.2150   -3.0960    0.0370 C   0  0
    1.1660    0.9570   -0.8200 C   0  0  2  0  0  0
   -0.4080   -3.8380    1.0590 C   0  0
    1.0390   -3.7420   -0.9040 C   0  0
    2.1090    1.4790   -1.9060 C   0  0
    1.3500    1.6740    0.5160 C   0  0
   -0.2050   -5.2290    1.1390 C   0  0
   -1.2790   -3.1620    2.0550 C   0  0
    1.2400   -5.1330   -0.8200 C   0  0
    1.6990   -2.9650   -1.9840 C   0  0
    1.9450    0.7380   -3.0490 F   0  0
    3.4060    1.3690   -1.4730 F   0  0
    1.8220    2.7930   -2.1660 F   0  0
    0.9160    3.1230    0.4240 C   0  0
    0.6190   -5.8750    0.1990 C   0  0
   -0.3460    3.6130    0.3890 C   0  0
    1.7580    4.2480    0.3590 C   0  0
    0.8320   -7.3440    0.2850 C   0  0
   -0.3730    4.9830    0.3050 C   0  0
   -1.5430    2.8560    0.4300 C   0  0
    0.9450    5.4080    0.2850 N   0  0
   -1.5920    5.6990    0.2540 C   0  0
   -2.7810    3.5470    0.3810 C   0  0
   -2.8070    4.9650    0.2950 C   0  0
   -4.0940    5.6760    0.2460 C   0  0
    2.1410   -0.6430   -0.0470 H   0  0
    0.1290    1.1800   -1.0720 H   0  0
    0.7830    1.1760    1.3030 H   0  0
    2.3890    1.6250    0.8400 H   0  0
   -0.6820   -5.7990    1.9220 H   0  0
   -1.9860   -2.4530    1.6230 H   0  0
   -0.6620   -2.6230    2.7720 H   0  0
   -1.8520   -3.9100    2.6040 H   0  0
    1.8730   -5.6290   -1.5430 H   0  0
    1.0600   -2.2150   -2.4510 H   0  0
    2.0390   -3.6450   -2.7660 H   0  0
    2.5740   -2.4550   -1.5840 H   0  0
    2.8400    4.2700    0.3630 H   0  0
    1.4860   -7.7480   -0.4880 H   0  0
   -0.1270   -7.8560    0.2110 H   0  0
    1.2680   -7.5920    1.2520 H   0  0
   -1.5240    1.7770    0.4940 H   0  0
    1.2680    6.3460    0.2290 H   0  0
   -1.5960    6.7770    0.1880 H   0  0
   -3.7030    2.9860    0.4120 H   0  0
   -4.9080    4.9510    0.2580 H   0  0
   -4.1490    6.3870    1.0700 H   0  0
   -4.1640    6.2380   -0.6850 H   0  0
  1  2  2  0
  1  3  2  0
  1  4  1  0
  1  5  1  0
  6  4  1  0
  5  7  2  0
  5  8  1  0
  6  9  1  0
  6 10  1  0
  7 11  1  0
  7 12  1  0
  8 13  2  0
  8 14  1  0
  9 15  1  0
  9 16  1  0
  9 17  1  0
 10 18  1  0
 11 19  2  0
 18 20  1  0
 18 21  2  0
 19 22  1  0
 20 23  1  0
 20 24  2  0
 21 25  1  0
 23 26  2  0
 24 27  1  0
 26 28  1  0
 28 29  1  0
 13 19  1  0
 23 25  1  0
 27 28  2  0
  4 30  1  0
  6 31  1  0
 10 32  1  0
 10 33  1  0
 11 34  1  0
 12 35  1  0
 12 36  1  0
 12 37  1  0
 13 38  1  0
 14 39  1  0
 14 40  1  0
 14 41  1  0
 21 42  1  0
 22 43  1  0
 22 44  1  0
 22 45  1  0
 24 46  1  0
 25 47  1  0
 26 48  1  0
 27 49  1  0
 29 50  1  0
 29 51  1  0
 29 52  1  0
M  END
> <Name>
CHEMBL3093447

> <IC50 nM>
2000

> <Molecule_ChEMBL_ID>
CHEMBL3093447

> <Smiles>
Cc1cc(C)c(S(=O)(=O)NC(Cc2c[nH]c3cc(C)ccc23)C(F)(F)F)c(C)c1

$$$$
CHEMBL3093442
  SciTegic08162514323D

 40 42  0  0  1  0            999 V2000
    2.1310   -0.7010   -4.4880 Cl  0  0
    0.4630   -0.7850   -4.0820 C   0  0
    0.0550   -1.1620   -2.7870 C   0  0
   -0.5020   -0.4710   -5.0590 C   0  0
    1.2400   -1.5450   -1.5820 S   0  0
   -1.3160   -1.2250   -2.4710 C   0  0
   -1.8710   -0.5310   -4.7420 C   0  0
    2.4490   -0.7970   -1.8770 O   0  0
    1.4420   -2.9850   -1.5840 O   0  0
    0.8010   -1.1230    0.0470 N   0  0
   -1.8360   -1.6840   -0.9010 Cl  0  0
   -2.2770   -0.9100   -3.4510 C   0  0
   -3.0430   -0.1470   -5.9340 Cl  0  0
    1.8360   -1.1580    1.0640 C   0  0  2  0  0  0
    2.4450   -2.5570    1.1620 C   0  0
    1.2910   -0.6560    2.4020 C   0  0
    3.2830   -2.7680    0.0960 F   0  0
    1.4430   -3.4920    1.1480 F   0  0
    3.1560   -2.6660    2.3300 F   0  0
    0.8610    0.7930    2.3100 C   0  0
   -0.3980    1.2850    2.2730 C   0  0
    1.7050    1.9180    2.2460 C   0  0
   -0.4240    2.6540    2.1890 C   0  0
   -1.5980    0.5290    2.3140 C   0  0
    0.8950    3.0780    2.1700 N   0  0
   -1.6430    3.3710    2.1410 C   0  0
   -2.8360    1.2230    2.2670 C   0  0
   -2.8570    2.6410    2.1800 C   0  0
   -0.1910   -0.1820   -6.0530 H   0  0
    0.3710   -0.1880    0.0550 H   0  0
   -3.3300   -0.9590   -3.2110 H   0  0
    2.5590   -0.4510    0.6540 H   0  0
    2.0390   -0.7660    3.1870 H   0  0
    0.4470   -1.2660    2.7260 H   0  0
    2.7870    1.9350    2.2500 H   0  0
   -1.5800   -0.5490    2.3810 H   0  0
    1.2170    4.0160    2.1150 H   0  0
   -1.6520    4.4490    2.0740 H   0  0
   -3.7620    0.6700    2.2970 H   0  0
   -3.8030    3.1620    2.1440 H   0  0
  1  2  1  0
  2  3  2  0
  2  4  1  0
  3  5  1  0
  3  6  1  0
  4  7  2  0
  5  8  2  0
  5  9  2  0
  5 10  1  0
  6 11  1  0
  6 12  2  0
  7 13  1  0
 14 10  1  0
 14 15  1  0
 14 16  1  0
 15 17  1  0
 15 18  1  0
 15 19  1  0
 16 20  1  0
 20 21  1  0
 20 22  2  0
 21 23  1  0
 21 24  2  0
 22 25  1  0
 23 26  2  0
 24 27  1  0
 26 28  1  0
  7 12  1  0
 23 25  1  0
 27 28  2  0
  4 29  1  0
 10 30  1  0
 12 31  1  0
 14 32  1  0
 16 33  1  0
 16 34  1  0
 22 35  1  0
 24 36  1  0
 25 37  1  0
 26 38  1  0
 27 39  1  0
 28 40  1  0
M  END
> <Name>
CHEMBL3093442

> <IC50 nM>
2000

> <Molecule_ChEMBL_ID>
CHEMBL3093442

> <Smiles>
O=S(=O)(NC(Cc1c[nH]c2ccccc12)C(F)(F)F)c1c(Cl)cc(Cl)cc1Cl

$$$$
CHEMBL3093451
  SciTegic08162514323D

 50 52  0  0  1  0            999 V2000
   -0.7500   -0.4040    0.0940 S   0  0
    0.5390    0.2660    0.0570 O   0  0
   -1.4320   -0.2620    1.3690 O   0  0
   -1.7480    0.4080   -1.0760 N   0  0
   -0.4940   -2.0880   -0.2010 C   0  0
   -2.0880    1.8010   -0.8360 C   0  0  2  0  0  0
   -1.4080   -3.0350    0.2970 C   0  0
    0.6270   -2.5100   -0.9410 C   0  0
   -3.2520    2.2300   -1.7290 C   0  0
   -0.8560    2.6890   -1.0020 C   0  0
   -1.1990   -4.4040    0.0570 C   0  0
   -2.5940   -2.5960    1.0800 C   0  0
    0.8320   -3.8810   -1.1800 C   0  0
    1.5960   -1.5160   -1.4710 C   0  0
   -2.8930    2.0880   -3.0450 F   0  0
   -3.5610    3.5410   -1.4790 F   0  0
   -4.3440    1.4450   -1.4670 F   0  0
   -0.2030    2.9800    0.3340 C   0  0
   -0.0800   -4.8280   -0.6820 C   0  0
    1.1170    2.9940    0.6290 C   0  0
   -0.8620    3.2990    1.5370 C   0  0
    0.1380   -6.2760   -0.9380 C   0  0
    1.3550    3.3010    1.9450 C   0  0
    2.1810    2.7320   -0.2700 C   0  0
    0.1190    3.4960    2.5390 N   0  0
    2.6680    3.3690    2.4670 C   0  0
    3.5140    2.7930    0.2190 C   0  0
    3.7500    3.1090    1.5860 C   0  0
    5.0990    3.1680    2.0780 C   0  0
    6.1890    3.2130    2.4750 N   0  0
   -2.6230   -0.1190   -1.2070 H   0  0
   -2.3970    1.7640    0.2090 H   0  0
   -1.1190    3.6270   -1.4900 H   0  0
   -0.1290    2.2190   -1.6660 H   0  0
   -1.9010   -5.1330    0.4390 H   0  0
   -3.1170   -1.7380    0.6560 H   0  0
   -2.2850   -2.3320    2.0900 H   0  0
   -3.3070   -3.4180    1.1520 H   0  0
    1.6910   -4.2050   -1.7480 H   0  0
    2.2950   -1.9160   -2.2050 H   0  0
    2.1780   -1.1020   -0.6480 H   0  0
    1.0530   -0.6930   -1.9410 H   0  0
   -1.9280    3.3870    1.7090 H   0  0
    1.0270   -6.4060   -1.5550 H   0  0
    0.2050   -6.8050    0.0140 H   0  0
   -0.7110   -6.6820   -1.4860 H   0  0
    1.9960    2.4920   -1.3070 H   0  0
   -0.0510    3.7320    3.4880 H   0  0
    2.8320    3.6110    3.5080 H   0  0
    4.3340    2.5940   -0.4570 H   0  0
  1  2  2  0
  1  3  2  0
  1  4  1  0
  1  5  1  0
  6  4  1  0
  5  7  2  0
  5  8  1  0
  6  9  1  0
  6 10  1  0
  7 11  1  0
  7 12  1  0
  8 13  2  0
  8 14  1  0
  9 15  1  0
  9 16  1  0
  9 17  1  0
 10 18  1  0
 11 19  2  0
 18 20  1  0
 18 21  2  0
 19 22  1  0
 20 23  1  0
 20 24  2  0
 21 25  1  0
 23 26  2  0
 24 27  1  0
 26 28  1  0
 28 29  1  0
 29 30  3  0
 13 19  1  0
 23 25  1  0
 27 28  2  0
  4 31  1  0
  6 32  1  0
 10 33  1  0
 10 34  1  0
 11 35  1  0
 12 36  1  0
 12 37  1  0
 12 38  1  0
 13 39  1  0
 14 40  1  0
 14 41  1  0
 14 42  1  0
 21 43  1  0
 22 44  1  0
 22 45  1  0
 22 46  1  0
 24 47  1  0
 25 48  1  0
 26 49  1  0
 27 50  1  0
M  END
> <Name>
CHEMBL3093451

> <IC50 nM>
10000

> <Molecule_ChEMBL_ID>
CHEMBL3093451

> <Smiles>
Cc1cc(C)c(S(=O)(=O)NC(Cc2c[nH]c3cc(C#N)ccc23)C(F)(F)F)c(C)c1

$$$$
CHEMBL3093455
  SciTegic08162514323D

 48 50  0  0  1  0            999 V2000
    0.5900    0.0410   -0.6420 S   0  0
   -0.4790    0.6150    0.1560 O   0  0
    1.3500    1.0350   -1.3810 O   0  0
    1.7030   -0.6720    0.4860 N   0  0
   -0.1090   -1.0610   -1.7770 C   0  0
    2.2270    0.1680    1.5530 C   0  0  2  0  0  0
   -1.3090   -1.7270   -1.4630 C   0  0
    0.5210   -1.2890   -3.0140 C   0  0
    3.5080   -0.4340    2.1270 C   0  0
    1.1560    0.4080    2.6170 C   0  0
   -1.8750   -2.6230   -2.3850 C   0  0
   -1.9800   -1.4880   -0.1560 C   0  0
   -0.0490   -2.1860   -3.9350 C   0  0
    1.7870   -0.5900   -3.3530 C   0  0
    3.2440   -1.6840    2.6230 F   0  0
    3.9770    0.3690    3.1370 F   0  0
    4.4550   -0.5230    1.1390 F   0  0
    0.7190    1.8130    2.6190 N   0  0
   -1.2460   -2.8540   -3.6230 C   0  0
   -0.5820    2.2830    2.6250 C   0  0
    1.5410    2.9410    2.6130 C   0  0
   -1.8480   -3.8010   -4.5980 C   0  0
   -0.6170    3.6740    2.6210 C   0  0
   -1.8090    1.5680    2.6330 C   0  0
    0.6930    4.0530    2.6150 C   0  0
   -1.7750    4.4200    2.6250 N   0  0
   -3.0230    2.3090    2.6350 C   0  0
   -2.9770    3.7330    2.6310 C   0  0
    2.5020   -1.0760   -0.0250 H   0  0
    2.4410    1.0880    1.0080 H   0  0
    1.5800    0.1580    3.5900 H   0  0
    0.2970   -0.2400    2.4530 H   0  0
   -2.7970   -3.1350   -2.1440 H   0  0
   -1.3070   -1.4960    0.7010 H   0  0
   -2.7360   -2.2560    0.0080 H   0  0
   -2.4820   -0.5210   -0.1780 H   0  0
    0.4340   -2.3630   -4.8870 H   0  0
    2.3110   -1.0020   -4.2170 H   0  0
    2.4670   -0.6310   -2.5020 H   0  0
    1.5780    0.4610   -3.5620 H   0  0
    2.6230    2.9200    2.6100 H   0  0
   -1.2680   -3.7910   -5.5190 H   0  0
   -1.9120   -4.7910   -4.1480 H   0  0
   -2.8610   -3.4790   -4.8400 H   0  0
   -1.8240    0.4880    2.6370 H   0  0
    1.0390    5.0780    2.6130 H   0  0
   -3.9750    1.7970    2.6410 H   0  0
   -3.9020    4.2890    2.6310 H   0  0
  1  2  2  0
  1  3  2  0
  1  4  1  0
  1  5  1  0
  6  4  1  0
  5  7  2  0
  5  8  1  0
  6  9  1  0
  6 10  1  0
  7 11  1  0
  7 12  1  0
  8 13  2  0
  8 14  1  0
  9 15  1  0
  9 16  1  0
  9 17  1  0
 10 18  1  0
 11 19  2  0
 18 20  1  0
 18 21  1  0
 19 22  1  0
 20 23  1  0
 20 24  2  0
 21 25  2  0
 23 26  2  0
 24 27  1  0
 26 28  1  0
 13 19  1  0
 23 25  1  0
 27 28  2  0
  4 29  1  0
  6 30  1  0
 10 31  1  0
 10 32  1  0
 11 33  1  0
 12 34  1  0
 12 35  1  0
 12 36  1  0
 13 37  1  0
 14 38  1  0
 14 39  1  0
 14 40  1  0
 21 41  1  0
 22 42  1  0
 22 43  1  0
 22 44  1  0
 24 45  1  0
 25 46  1  0
 27 47  1  0
 28 48  1  0
M  END
> <Name>
CHEMBL3093455

> <IC50 nM>
340

> <Molecule_ChEMBL_ID>
CHEMBL3093455

> <Smiles>
Cc1cc(C)c(S(=O)(=O)NC(Cn2ccc3ncccc32)C(F)(F)F)c(C)c1

$$$$
CHEMBL3093448
  SciTegic08162514323D

 52 54  0  0  1  0            999 V2000
    2.1950   -0.0310    0.0630 S   0  0
    3.1950    0.8710   -0.4820 O   0  0
    2.0180    0.1090    1.4960 O   0  0
    0.6820    0.4390   -0.6560 N   0  0
    2.6890   -1.6550   -0.2680 C   0  0
   -0.5120   -0.2990   -0.2790 C   0  0  2  0  0  0
    3.3710   -1.9530   -1.4650 C   0  0
    2.4120   -2.6760    0.6580 C   0  0
   -1.5530   -0.2380   -1.3970 C   0  0
   -1.0510    0.2030    1.0610 C   0  0
    3.7720   -3.2740   -1.7300 C   0  0
    3.6680   -0.8770   -2.4470 C   0  0
    2.8160   -3.9960    0.3890 C   0  0
    1.6930   -2.3690    1.9240 C   0  0
   -1.8050    1.0720   -1.7150 F   0  0
   -2.7130   -0.8340   -0.9730 F   0  0
   -1.0780   -0.8950   -2.5020 F   0  0
   -1.4860    1.6500    0.9690 C   0  0
    3.4960   -4.2950   -0.8070 C   0  0
   -2.7480    2.1390    0.9320 C   0  0
   -0.6450    2.7750    0.9020 C   0  0
    3.9220   -5.6920   -1.0900 C   0  0
   -2.7770    3.5080    0.8480 C   0  0
   -3.9450    1.3790    0.9730 C   0  0
   -1.4570    3.9330    0.8280 N   0  0
   -4.0020    4.2210    0.7990 C   0  0
   -5.1860    2.0660    0.9260 C   0  0
   -5.2150    3.4840    0.8380 C   0  0
   -4.0230    5.6890    0.7070 C   0  0
    0.7680    0.4140   -1.6820 H   0  0
   -0.1110   -1.3090   -0.1820 H   0  0
   -0.2990    0.0970    1.8420 H   0  0
   -1.8890   -0.4100    1.3910 H   0  0
    4.2950   -3.5020   -2.6480 H   0  0
    2.8340   -0.1990   -2.6370 H   0  0
    3.9550   -1.3240   -3.3980 H   0  0
    4.5080   -0.2810   -2.0920 H   0  0
    2.6040   -4.7820    1.1000 H   0  0
    1.3670   -3.2480    2.4790 H   0  0
    0.8130   -1.7660    1.7050 H   0  0
    2.3420   -1.7850    2.5780 H   0  0
    0.4380    2.7970    0.9060 H   0  0
    3.6310   -6.3360   -0.2600 H   0  0
    3.4980   -6.0140   -2.0410 H   0  0
    5.0060   -5.7290   -1.1780 H   0  0
   -3.9260    0.3010    1.0390 H   0  0
   -1.1370    4.8730    0.7730 H   0  0
   -6.1110    1.5100    0.9550 H   0  0
   -6.1640    4.0000    0.8030 H   0  0
   -3.0370    6.1520    0.6680 H   0  0
   -4.5510    6.1000    1.5680 H   0  0
   -4.5660    5.9900   -0.1890 H   0  0
  1  2  2  0
  1  3  2  0
  1  4  1  0
  1  5  1  0
  6  4  1  0
  5  7  2  0
  5  8  1  0
  6  9  1  0
  6 10  1  0
  7 11  1  0
  7 12  1  0
  8 13  2  0
  8 14  1  0
  9 15  1  0
  9 16  1  0
  9 17  1  0
 10 18  1  0
 11 19  2  0
 18 20  1  0
 18 21  2  0
 19 22  1  0
 20 23  1  0
 20 24  2  0
 21 25  1  0
 23 26  2  0
 24 27  1  0
 26 28  1  0
 26 29  1  0
 13 19  1  0
 23 25  1  0
 27 28  2  0
  4 30  1  0
  6 31  1  0
 10 32  1  0
 10 33  1  0
 11 34  1  0
 12 35  1  0
 12 36  1  0
 12 37  1  0
 13 38  1  0
 14 39  1  0
 14 40  1  0
 14 41  1  0
 21 42  1  0
 22 43  1  0
 22 44  1  0
 22 45  1  0
 24 46  1  0
 25 47  1  0
 27 48  1  0
 28 49  1  0
 29 50  1  0
 29 51  1  0
 29 52  1  0
M  END
> <Name>
CHEMBL3093448

> <IC50 nM>
20

> <Molecule_ChEMBL_ID>
CHEMBL3093448

> <Smiles>
Cc1cc(C)c(S(=O)(=O)NC(Cc2c[nH]c3c(C)cccc23)C(F)(F)F)c(C)c1

$$$$
CHEMBL3093456
  SciTegic08162514323D

 50 52  0  0  1  0            999 V2000
    0.4200   -0.6640   -0.6170 S   0  0
   -0.4450    0.4630   -0.3160 O   0  0
    1.4490   -0.3520   -1.5940 O   0  0
    1.2580   -1.0350    0.8610 N   0  0
   -0.5570   -1.9450   -1.2460 C   0  0
    2.0680    0.0100    1.4670 C   0  0  2  0  0  0
   -0.6820   -2.1130   -2.6390 C   0  0
   -1.2250   -2.8160   -0.3670 C   0  0
    3.2620   -0.5980    2.2050 C   0  0
    1.2090    0.9000    2.3650 C   0  0
   -1.4770   -3.1560   -3.1480 C   0  0
    0.0220   -1.1950   -3.5740 C   0  0
   -2.0180   -3.8570   -0.8810 C   0  0
   -1.0960   -2.6450    1.1040 C   0  0
    4.0700   -1.2460    1.3090 F   0  0
    2.8110   -1.4900    3.1430 F   0  0
    3.9710    0.3980    2.8260 F   0  0
    1.1990    2.2910    1.8770 N   0  0
   -2.1450   -4.0270   -2.2720 C   0  0
    0.0780    3.0120    1.4510 C   0  0
    2.3240    3.1470    1.7520 C   0  0
   -2.9820   -5.1290   -2.8130 C   0  0
    0.5040    4.2680    1.0760 C   0  0
   -1.2850    2.6450    1.3670 C   0  0
    1.8360    4.3610    1.2500 C   0  0
   -0.4080    5.2440    0.5940 C   0  0
   -2.2190    3.6020    0.8890 C   0  0
    2.6580    5.5060    0.9730 C   0  0
   -1.7770    4.8970    0.5020 C   0  0
    3.3220    6.4300    0.7500 N   0  0
    1.8540   -1.8630    0.7210 H   0  0
    2.3990    0.5590    0.5840 H   0  0
    1.6230    0.8710    3.3730 H   0  0
    0.1880    0.5250    2.4160 H   0  0
   -1.5720   -3.2870   -4.2170 H   0  0
   -0.0760   -0.1390   -3.3220 H   0  0
   -0.3670   -1.3360   -4.5820 H   0  0
    1.0840   -1.4370   -3.5900 H   0  0
   -2.5310   -4.5290   -0.2050 H   0  0
   -1.8690   -3.1480    1.6840 H   0  0
   -1.1330   -1.5840    1.3500 H   0  0
   -0.1290   -3.0290    1.4320 H   0  0
    3.3340    2.8630    2.0080 H   0  0
   -3.4060   -5.7030   -1.9880 H   0  0
   -3.7460   -4.7150   -3.4710 H   0  0
   -2.3610   -5.8030   -3.4020 H   0  0
   -1.6210    1.6580    1.6620 H   0  0
   -0.0640    6.2250    0.3030 H   0  0
   -3.2680    3.3480    0.8140 H   0  0
   -2.4840    5.6210    0.1390 H   0  0
  1  2  2  0
  1  3  2  0
  1  4  1  0
  1  5  1  0
  6  4  1  0
  5  7  2  0
  5  8  1  0
  6  9  1  0
  6 10  1  0
  7 11  1  0
  7 12  1  0
  8 13  2  0
  8 14  1  0
  9 15  1  0
  9 16  1  0
  9 17  1  0
 10 18  1  0
 11 19  2  0
 18 20  1  0
 18 21  1  0
 19 22  1  0
 20 23  1  0
 20 24  2  0
 21 25  2  0
 23 26  2  0
 24 27  1  0
 25 28  1  0
 26 29  1  0
 28 30  3  0
 13 19  1  0
 23 25  1  0
 27 29  2  0
  4 31  1  0
  6 32  1  0
 10 33  1  0
 10 34  1  0
 11 35  1  0
 12 36  1  0
 12 37  1  0
 12 38  1  0
 13 39  1  0
 14 40  1  0
 14 41  1  0
 14 42  1  0
 21 43  1  0
 22 44  1  0
 22 45  1  0
 22 46  1  0
 24 47  1  0
 26 48  1  0
 27 49  1  0
 29 50  1  0
M  END
> <Name>
CHEMBL3093456

> <IC50 nM>
15

> <Molecule_ChEMBL_ID>
CHEMBL3093456

> <Smiles>
Cc1cc(C)c(S(=O)(=O)NC(Cn2cc(C#N)c3ccccc32)C(F)(F)F)c(C)c1

$$$$
CHEMBL3093463
  SciTegic08162514323D

 46 48  0  0  1  0            999 V2000
    0.0510   -0.5250    5.2970 Cl  0  0
   -1.0200    0.3670    4.2950 C   0  0
   -0.8130    0.4370    2.9020 C   0  0
   -2.1150    1.0330    4.8750 C   0  0
    0.5350   -0.3790    2.1840 S   0  0
   -1.7010    1.1740    2.0940 C   0  0
   -3.0040    1.7700    4.0680 C   0  0
    0.9160   -1.4820    3.0490 O   0  0
    1.6040    0.5880    1.9840 O   0  0
    0.2270   -1.0800    0.6210 N   0  0
   -1.5120    1.2520    0.7380 N   0  0
   -2.7970    1.8380    2.6800 C   0  0
   -4.3360    2.5820    4.7790 Cl  0  0
    1.3220   -1.7580   -0.0510 C   0  0  2  0  0  0
    1.1310   -1.7110   -1.5660 C   0  0
    1.4750   -3.1840    0.4810 C   0  0
    1.1210   -0.3200   -2.0550 N   0  0
    2.7770   -3.8460    0.0290 C   0  0
    0.0000    0.3980   -2.4820 C   0  0
    2.2460    0.5330   -2.1820 C   0  0
    0.4260    1.6560   -2.8550 C   0  0
   -1.3630    0.0330   -2.5640 C   0  0
    1.7580    1.7480   -2.6840 C   0  0
   -0.4860    2.6330   -3.3400 C   0  0
   -2.2970    0.9900   -3.0450 C   0  0
    2.5800    2.8930   -2.9590 C   0  0
   -1.8550    2.2850   -3.4300 C   0  0
    3.2440    3.8180   -3.1840 N   0  0
   -2.2750    0.9820    5.9430 H   0  0
   -0.5640   -1.7340    0.6900 H   0  0
   -0.6350    1.0250    0.3150 H   0  0
   -2.2620    1.5390    0.1450 H   0  0
   -3.4840    2.4040    2.0650 H   0  0
    2.1680   -1.1430    0.2500 H   0  0
    0.1800   -2.1880   -1.8070 H   0  0
    1.9200   -2.2700   -2.0720 H   0  0
    1.3910   -3.2010    1.5680 H   0  0
    0.6170   -3.7930    0.2010 H   0  0
    2.9180   -4.8010    0.5330 H   0  0
    2.7750   -4.0080   -1.0470 H   0  0
    3.6330   -3.2130    0.2700 H   0  0
    3.2560    0.2520   -1.9260 H   0  0
   -1.6990   -0.9530   -2.2700 H   0  0
   -0.1430    3.6130   -3.6290 H   0  0
   -3.3460    0.7360   -3.1170 H   0  0
   -2.5630    3.0080   -3.7930 H   0  0
  1  2  1  0
  2  3  2  0
  2  4  1  0
  3  5  1  0
  3  6  1  0
  4  7  2  0
  5  8  2  0
  5  9  2  0
  5 10  1  0
  6 11  1  0
  6 12  2  0
  7 13  1  0
 14 10  1  0
 14 15  1  0
 14 16  1  0
 15 17  1  0
 16 18  1  0
 17 19  1  0
 17 20  1  0
 19 21  1  0
 19 22  2  0
 20 23  2  0
 21 24  2  0
 22 25  1  0
 23 26  1  0
 24 27  1  0
 26 28  3  0
  7 12  1  0
 21 23  1  0
 25 27  2  0
  4 29  1  0
 10 30  1  0
 11 31  1  0
 11 32  1  0
 12 33  1  0
 14 34  1  0
 15 35  1  0
 15 36  1  0
 16 37  1  0
 16 38  1  0
 18 39  1  0
 18 40  1  0
 18 41  1  0
 20 42  1  0
 22 43  1  0
 24 44  1  0
 25 45  1  0
 27 46  1  0
M  END
> <Name>
CHEMBL3093463

> <IC50 nM>
7

> <Molecule_ChEMBL_ID>
CHEMBL3093463

> <Smiles>
CC[C@@H](Cn1cc(C#N)c2ccccc21)NS(=O)(=O)c1c(N)cc(Cl)cc1Cl

$$$$
CHEMBL3094479
  SciTegic08162514323D

 54 56  0  0  1  0            999 V2000
   -0.6330    1.4220    1.1840 S   0  0
   -0.4020    2.8530    1.2720 O   0  0
   -1.9650    1.0290    1.6080 O   0  0
   -0.5290    1.0250   -0.5080 N   0  0
    0.5200    0.6230    2.1960 C   0  0
   -1.5550    1.5490   -1.3940 C   0  0  2  0  0  0
    1.0530    1.2890    3.3130 C   0  0
    0.9200   -0.6930    1.8990 C   0  0
   -1.4220    0.9340   -2.7890 C   0  0
   -1.5140    3.0760   -1.4180 C   0  0
    1.9900    0.6390    4.1350 C   0  0
    0.6330    2.6800    3.6310 C   0  0
    1.8570   -1.3420    2.7230 C   0  0
    0.3590   -1.4020    0.7190 C   0  0
   -1.4670   -0.5410   -2.7400 C   0  0
   -2.6720    3.7090   -0.6440 C   0  0
    2.3930   -0.6780    3.8420 C   0  0
   -0.2810   -1.3280   -2.7260 C   0  0
   -2.7320   -1.1760   -2.7050 C   0  0
    3.3810   -1.3650    4.7110 C   0  0
   -0.3810   -2.7560   -2.6800 C   0  0
    1.0060   -0.7210   -2.7580 C   0  0
   -2.8240   -2.5860   -2.6580 C   0  0
   -1.6540   -3.3770   -2.6460 C   0  0
    0.7930   -3.5510   -2.6700 C   0  0
    2.1700   -1.5240   -2.7460 C   0  0
    2.0640   -2.9320   -2.7030 C   0  0
    0.3890    1.3100   -0.8730 H   0  0
   -2.4610    1.1930   -0.9040 H   0  0
   -0.4920    1.2520   -3.2640 H   0  0
   -2.2070    1.3010   -3.4490 H   0  0
   -0.5590    3.4410   -1.0450 H   0  0
   -1.4880    3.4450   -2.4430 H   0  0
    2.4000    1.1480    4.9940 H   0  0
   -0.4430    2.8480    3.5780 H   0  0
    1.1130    3.3710    2.9400 H   0  0
    0.9610    2.9370    4.6390 H   0  0
    2.1660   -2.3520    2.4960 H   0  0
   -0.7090   -1.2520    0.5710 H   0  0
    0.5350   -2.4730    0.8220 H   0  0
    0.8710   -1.0660   -0.1830 H   0  0
   -2.5820    4.7950   -0.6370 H   0  0
   -3.6290    3.4360   -1.0920 H   0  0
   -2.6780    3.3650    0.3890 H   0  0
   -3.6390   -0.5860   -2.7170 H   0  0
    3.6270   -2.3790    4.3990 H   0  0
    2.9960   -1.4140    5.7310 H   0  0
    4.3070   -0.7890    4.7330 H   0  0
    1.1210    0.3530   -2.7890 H   0  0
   -3.7950   -3.0610   -2.6330 H   0  0
   -1.7480   -4.4530   -2.6090 H   0  0
    0.7360   -4.6310   -2.6370 H   0  0
    3.1430   -1.0570   -2.7690 H   0  0
    2.9590   -3.5390   -2.6950 H   0  0
  1  2  2  0
  1  3  2  0
  1  4  1  0
  1  5  1  0
  6  4  1  0
  5  7  2  0
  5  8  1  0
  6  9  1  0
  6 10  1  0
  7 11  1  0
  7 12  1  0
  8 13  2  0
  8 14  1  0
  9 15  1  0
 10 16  1  0
 11 17  2  0
 15 18  2  0
 15 19  1  0
 17 20  1  0
 18 21  1  0
 18 22  1  0
 19 23  2  0
 21 24  2  0
 21 25  1  0
 22 26  2  0
 25 27  2  0
 13 17  1  0
 23 24  1  0
 26 27  1  0
  4 28  1  0
  6 29  1  0
  9 30  1  0
  9 31  1  0
 10 32  1  0
 10 33  1  0
 11 34  1  0
 12 35  1  0
 12 36  1  0
 12 37  1  0
 13 38  1  0
 14 39  1  0
 14 40  1  0
 14 41  1  0
 16 42  1  0
 16 43  1  0
 16 44  1  0
 19 45  1  0
 20 46  1  0
 20 47  1  0
 20 48  1  0
 22 49  1  0
 23 50  1  0
 24 51  1  0
 25 52  1  0
 26 53  1  0
 27 54  1  0
M  END
> <Name>
CHEMBL3094479

> <IC50 nM>
10000

> <Molecule_ChEMBL_ID>
CHEMBL3094479

> <Smiles>
CCC(Cc1cccc2ccccc12)NS(=O)(=O)c1c(C)cc(C)cc1C

$$$$
CHEMBL3094474
  SciTegic08162514323D

 54 55  0  0  1  0            999 V2000
    0.0450   -1.5800    1.1270 S   0  0
   -0.6210   -2.8560    1.3180 O   0  0
    1.4920   -1.6720    1.2030 O   0  0
   -0.3200   -1.0860   -0.5020 N   0  0
   -0.4960   -0.4940    2.3600 C   0  0
    0.2150   -1.8850   -1.5920 C   0  0  2  0  0  0
   -0.9160   -0.9980    3.6040 C   0  0
   -0.5140    0.8930    2.1150 C   0  0
    0.0350   -1.1600   -2.9260 C   0  0
   -0.4100   -3.2810   -1.5900 C   0  0
   -1.3550   -0.1130    4.6060 C   0  0
   -0.8980   -2.4610    3.8670 C   0  0
   -0.9550    1.7730    3.1190 C   0  0
   -0.0720    1.4320    0.8030 C   0  0
    0.7170    0.1640   -2.9260 C   0  0
    0.5610   -4.3610   -1.1110 C   0  0
   -1.3750    1.2710    4.3630 C   0  0
   -0.0330    1.3570   -2.9260 C   0  0
    2.1210    0.2190   -2.9260 C   0  0
   -1.8400    2.2050    5.4240 C   0  0
    0.6290    2.6000   -2.9260 C   0  0
   -1.5200    1.3200   -2.9260 C   0  0
    2.7790    1.4590   -2.9260 C   0  0
    2.0330    2.6500   -2.9260 C   0  0
    2.7310    3.9630   -2.9260 C   0  0
   -1.3400   -1.0220   -0.6210 H   0  0
    1.2700   -1.9360   -1.3180 H   0  0
   -1.0230   -1.0230   -3.1500 H   0  0
    0.4180   -1.7660   -3.7480 H   0  0
   -1.3240   -3.2930   -0.9960 H   0  0
   -0.8070   -3.5270   -2.5740 H   0  0
   -1.6800   -0.5000    5.5630 H   0  0
    0.0160   -2.9630    3.5510 H   0  0
   -1.7340   -2.9340    3.3520 H   0  0
   -1.0230   -2.6390    4.9360 H   0  0
   -0.9690    2.8380    2.9340 H   0  0
    0.8280    0.9610    0.4060 H   0  0
    0.1230    2.5000    0.8970 H   0  0
   -0.8670    1.3010    0.0700 H   0  0
    0.0640   -5.3320   -1.0680 H   0  0
    1.4180   -4.4300   -1.7790 H   0  0
    0.9320   -4.1310   -0.1130 H   0  0
    2.7010   -0.6930   -2.9260 H   0  0
   -1.8160    3.2560    5.1370 H   0  0
   -1.2170    2.0860    6.3110 H   0  0
   -2.8650    1.9570    5.7010 H   0  0
    0.0570    3.5160   -2.9260 H   0  0
   -1.9570    0.8650   -3.8140 H   0  0
   -1.9080    2.3360   -2.8460 H   0  0
   -1.8690    0.7620   -2.0590 H   0  0
    3.8610    1.4920   -2.9260 H   0  0
    3.8180    3.8950   -2.9260 H   0  0
    2.4320    4.5330   -2.0450 H   0  0
    2.4320    4.5330   -3.8070 H   0  0
  1  2  2  0
  1  3  2  0
  1  4  1  0
  1  5  1  0
  6  4  1  0
  5  7  2  0
  5  8  1  0
  6  9  1  0
  6 10  1  0
  7 11  1  0
  7 12  1  0
  8 13  2  0
  8 14  1  0
  9 15  1  0
 10 16  1  0
 11 17  2  0
 15 18  2  0
 15 19  1  0
 17 20  1  0
 18 21  1  0
 18 22  1  0
 19 23  2  0
 21 24  2  0
 24 25  1  0
 13 17  1  0
 23 24  1  0
  4 26  1  0
  6 27  1  0
  9 28  1  0
  9 29  1  0
 10 30  1  0
 10 31  1  0
 11 32  1  0
 12 33  1  0
 12 34  1  0
 12 35  1  0
 13 36  1  0
 14 37  1  0
 14 38  1  0
 14 39  1  0
 16 40  1  0
 16 41  1  0
 16 42  1  0
 19 43  1  0
 20 44  1  0
 20 45  1  0
 20 46  1  0
 21 47  1  0
 22 48  1  0
 22 49  1  0
 22 50  1  0
 23 51  1  0
 25 52  1  0
 25 53  1  0
 25 54  1  0
M  END
> <Name>
CHEMBL3094474

> <IC50 nM>
10000

> <Molecule_ChEMBL_ID>
CHEMBL3094474

> <Smiles>
CCC(Cc1ccc(C)cc1C)NS(=O)(=O)c1c(C)cc(C)cc1C

$$$$
CHEMBL456237
  SciTegic08162514323D

 41 44  0  0  0  0            999 V2000
    1.6760    3.1480    1.4960 Cl  0  0
    2.3200    1.5590    1.6000 C   0  0
    2.2990    0.6820    0.4920 C   0  0
    2.8830    1.1290    2.8180 C   0  0
    2.8360   -0.6110    0.6130 C   0  0
    1.7130    1.0980   -0.8130 C   0  0
    3.4180   -0.1640    2.9340 C   0  0
    3.3970   -1.0350    1.8300 C   0  0
    0.2420    1.0450   -0.7890 N   0  0
    3.9470   -0.5660    4.0860 F   0  0
   -0.5450    2.1720   -0.8750 N   0  0
   -0.4880   -0.1290   -0.6800 C   0  0
   -1.8460    1.8110   -0.8260 C   0  0
    0.0200   -1.5200   -0.5680 C   0  0
   -1.7540    0.4410   -0.7110 C   0  0
   -3.0700    2.5140   -0.8690 C   0  0
    0.7070   -2.1070   -1.6470 C   0  0
   -0.1830   -2.2520    0.6150 C   0  0
   -2.9510   -0.3220   -0.6310 C   0  0
   -4.2680    1.7580   -0.7870 C   0  0
   -3.1090    3.9790   -0.9940 C   0  0
    1.1900   -3.4240   -1.5390 C   0  0
    0.2990   -3.5680    0.7210 C   0  0
   -4.2070    0.3420   -0.6680 C   0  0
   -2.4610    4.5470    0.0720 F   0  0
   -4.4140    4.4000   -1.0120 F   0  0
   -2.4920    4.3560   -2.1580 F   0  0
    0.9850   -4.1560   -0.3570 C   0  0
    1.4420   -5.4020   -0.2560 F   0  0
    2.9060    1.7890    3.6760 H   0  0
    2.8220   -1.2870   -0.2290 H   0  0
    2.0370    2.1110   -1.0510 H   0  0
    2.0880    0.4450   -1.6020 H   0  0
    3.8070   -2.0290    1.9140 H   0  0
    0.8730   -1.5590   -2.5630 H   0  0
   -0.7090   -1.8160    1.4530 H   0  0
   -2.9220   -1.3980   -0.5410 H   0  0
   -5.2260    2.2540   -0.8130 H   0  0
    1.7170   -3.8710   -2.3710 H   0  0
    0.1390   -4.1270    1.6330 H   0  0
   -5.1190   -0.2320   -0.6050 H   0  0
  1  2  1  0
  2  3  2  0
  2  4  1  0
  3  5  1  0
  3  6  1  0
  4  7  2  0
  5  8  2  0
  6  9  1  0
  7 10  1  0
  9 11  1  0
  9 12  1  0
 11 13  2  0
 12 14  1  0
 12 15  2  0
 13 16  1  0
 14 17  2  0
 14 18  1  0
 15 19  1  0
 16 20  2  0
 16 21  1  0
 17 22  1  0
 18 23  2  0
 19 24  2  0
 21 25  1  0
 21 26  1  0
 21 27  1  0
 22 28  2  0
 28 29  1  0
  7  8  1  0
 13 15  1  0
 20 24  1  0
 23 28  1  0
  4 30  1  0
  5 31  1  0
  6 32  1  0
  6 33  1  0
  8 34  1  0
 17 35  1  0
 18 36  1  0
 19 37  1  0
 20 38  1  0
 22 39  1  0
 23 40  1  0
 24 41  1  0
M  END
> <Name>
CHEMBL456237

> <IC50 nM>
1000

> <Molecule_ChEMBL_ID>
CHEMBL456237

> <Smiles>
Fc1ccc(-c2c3cccc(C(F)(F)F)c3nn2Cc2ccc(F)cc2Cl)cc1

$$$$
CHEMBL1253986
  SciTegic08162514323D

 47 49  0  0  1  0            999 V2000
    0.2430    2.9960   -0.2670 F   0  0
    0.8050    1.8020   -0.6390 C   0  0
    0.4760    1.5280   -1.9420 F   0  0
    2.1680    1.8820   -0.5190 F   0  0
    0.2780    0.6870    0.2650 C   0  0  1  0  0  0
   -1.0200    0.3450   -0.1660 O   0  0
    1.1450   -0.5720    0.2160 C   0  0
    0.1750    1.2780    1.6710 C   0  0
    1.7710   -0.7530   -1.1500 C   0  0
   -1.2710    1.4070    2.1520 C   0  0
    3.1540   -0.5600   -1.4040 N   0  0
    1.1430   -1.1250   -2.3560 C   0  0
   -1.9670    0.0940    2.1520 C   0  0
   -1.3810    2.1020    3.5100 C   0  0
   -2.1910    2.0220    1.0980 C   0  0
    3.3470   -0.8170   -2.7500 C   0  0
    2.1260   -1.1490   -3.2810 C   0  0
   -3.3720    0.0420    2.1520 C   0  0
   -1.2200   -1.0990    2.1520 C   0  0
    4.4720   -0.8020   -3.6000 C   0  0
    1.9940   -1.4700   -4.6620 C   0  0
   -4.0300   -1.2010    2.1520 C   0  0
   -1.8790   -2.3410    2.1520 C   0  0
    4.4150   -1.1030   -4.9440 N   0  0
    3.1700   -1.4370   -5.4710 C   0  0
   -3.2840   -2.3920    2.1520 C   0  0
   -0.9260   -0.1340   -1.0040 H   0  0
    0.5570   -1.4550    0.4660 H   0  0
    1.9290   -0.5290    0.9720 H   0  0
    0.7660    0.6960    2.3780 H   0  0
    0.6860    2.2390    1.7230 H   0  0
    3.8470   -0.2920   -0.7440 H   0  0
    0.0930   -1.3450   -2.5030 H   0  0
   -2.4150    2.1740    3.8460 H   0  0
   -0.9760    3.1130    3.4590 H   0  0
   -0.8200    1.5570    4.2690 H   0  0
   -2.9330    2.6690    1.5650 H   0  0
   -1.6160    2.6030    0.3760 H   0  0
   -2.7240    1.2450    0.5500 H   0  0
   -3.9520    0.9530    2.1520 H   0  0
   -0.1410   -1.0660    2.1520 H   0  0
    5.4310   -0.5400   -3.1780 H   0  0
    1.0370   -1.7310   -5.0910 H   0  0
   -5.1090   -1.2400    2.1520 H   0  0
   -1.3050   -3.2560    2.1520 H   0  0
    3.0930   -1.6780   -6.5210 H   0  0
   -3.7890   -3.3460    2.1520 H   0  0
  1  2  1  0
  2  3  1  0
  2  4  1  0
  2  5  1  0
  5  6  1  0
  5  7  1  0
  5  8  1  0
  7  9  1  0
  8 10  1  0
  9 11  1  0
  9 12  2  0
 10 13  1  0
 10 14  1  0
 10 15  1  0
 11 16  1  0
 12 17  1  0
 13 18  2  0
 13 19  1  0
 16 20  1  0
 17 21  1  0
 18 22  1  0
 19 23  2  0
 20 24  2  0
 21 25  2  0
 22 26  2  0
 16 17  2  0
 23 26  1  0
 24 25  1  0
  6 27  1  0
  7 28  1  0
  7 29  1  0
  8 30  1  0
  8 31  1  0
 11 32  1  0
 12 33  1  0
 14 34  1  0
 14 35  1  0
 14 36  1  0
 15 37  1  0
 15 38  1  0
 15 39  1  0
 18 40  1  0
 19 41  1  0
 20 42  1  0
 21 43  1  0
 22 44  1  0
 23 45  1  0
 25 46  1  0
 26 47  1  0
M  END
> <Name>
CHEMBL1253986

> <IC50 nM>
9.3

> <Molecule_ChEMBL_ID>
CHEMBL1253986

> <Smiles>
CC(C)(CC(O)(Cc1cc2ccncc2[nH]1)C(F)(F)F)c1ccccc1

$$$$
CHEMBL1254345
  SciTegic08162514323D

 56 59  0  0  1  0            999 V2000
    1.9650    2.0490   -0.8090 F   0  0
    1.9940    0.8030   -1.3790 C   0  0
    1.3400    0.8340   -2.5840 F   0  0
    3.2950    0.4200   -1.5780 F   0  0
    1.3050   -0.1990   -0.4510 C   0  0  1  0  0  0
    1.5700   -1.4980   -0.9300 O   0  0
    1.8050   -0.1070    0.9900 C   0  0
   -0.1970    0.0590   -0.5720 C   0  0
    3.3150   -0.2210    1.0550 C   0  0
   -1.0140   -0.7320    0.4510 C   0  0
    4.1740    0.9040    1.1310 N   0  0
    4.1040   -1.3890    1.0530 C   0  0
   -2.4750   -0.5000    0.2830 C   0  0
   -0.6780   -2.2250    0.4490 C   0  0
   -0.9630   -0.1170    1.8500 C   0  0
    5.4670    0.4100    1.1760 C   0  0
    5.3810   -0.9590    1.1270 C   0  0
   -3.4000   -1.1720    1.1040 C   0  0
   -2.9260    0.3950   -0.7050 C   0  0
    6.7420    1.0040    1.2560 C   0  0
    6.5550   -1.7660    1.1520 C   0  0
   -2.9860   -2.0120    2.0310 O   0  0
   -4.7770   -0.9410    0.9340 C   0  0
   -4.3050    0.6230   -0.8730 C   0  0
    7.9180    0.2830    1.2870 N   0  0
    7.8170   -1.1030    1.2360 C   0  0
   -5.2300   -0.0490   -0.0510 C   0  0
   -4.7730    1.5490   -1.8940 C   0  0
   -6.1540    1.7870   -2.0740 C   0  0
   -3.8550    2.2290   -2.7270 C   0  0
   -6.5880    2.6560   -3.0330 N   0  0
   -4.3010    3.0980   -3.6820 N   0  0
   -5.6480    3.2810   -3.8050 C   0  0
    1.8790   -2.0230   -0.1760 H   0  0
    1.3560   -0.8890    1.6040 H   0  0
    1.4900    0.8280    1.4490 H   0  0
   -0.4140    1.1230   -0.4980 H   0  0
   -0.5430   -0.1480   -1.5840 H   0  0
    3.9030    1.8590    1.1490 H   0  0
    3.7520   -2.4120    1.0040 H   0  0
   -1.4760   -2.8200    0.8930 H   0  0
    0.2330   -2.4140    1.0160 H   0  0
   -0.5170   -2.5820   -0.5680 H   0  0
   -0.4550   -0.7850    2.5450 H   0  0
   -0.4430    0.8400    1.8300 H   0  0
   -1.9690    0.0590    2.2310 H   0  0
   -2.2050    0.9040   -1.3300 H   0  0
    6.8050    2.0820    1.2950 H   0  0
    6.4980   -2.8440    1.1130 H   0  0
   -3.6370   -2.4630    2.5860 H   0  0
   -5.4900   -1.4550    1.5630 H   0  0
    8.7210   -1.6950    1.2600 H   0  0
   -6.2930    0.1150   -0.1660 H   0  0
   -6.8850    1.2830   -1.4550 H   0  0
   -2.7910    2.0720   -2.6170 H   0  0
   -5.9960    3.9690   -4.5620 H   0  0
  1  2  1  0
  2  3  1  0
  2  4  1  0
  2  5  1  0
  5  6  1  0
  5  7  1  0
  5  8  1  0
  7  9  1  0
  8 10  1  0
  9 11  1  0
  9 12  2  0
 10 13  1  0
 10 14  1  0
 10 15  1  0
 11 16  1  0
 12 17  1  0
 13 18  2  0
 13 19  1  0
 16 20  1  0
 17 21  1  0
 18 22  1  0
 18 23  1  0
 19 24  2  0
 20 25  2  0
 21 26  2  0
 23 27  2  0
 24 28  1  0
 28 29  2  0
 28 30  1  0
 29 31  1  0
 30 32  2  0
 31 33  2  0
 16 17  2  0
 24 27  1  0
 25 26  1  0
 32 33  1  0
  6 34  1  0
  7 35  1  0
  7 36  1  0
  8 37  1  0
  8 38  1  0
 11 39  1  0
 12 40  1  0
 14 41  1  0
 14 42  1  0
 14 43  1  0
 15 44  1  0
 15 45  1  0
 15 46  1  0
 19 47  1  0
 20 48  1  0
 21 49  1  0
 22 50  1  0
 23 51  1  0
 26 52  1  0
 27 53  1  0
 29 54  1  0
 30 55  1  0
 33 56  1  0
M  END
> <Name>
CHEMBL1254345

> <IC50 nM>
21

> <Molecule_ChEMBL_ID>
CHEMBL1254345

> <Smiles>
CC(C)(CC(O)(Cc1cc2ccncc2[nH]1)C(F)(F)F)c1cc(-c2cncnc2)ccc1O

$$$$
CHEMBL1254265
  SciTegic08162514323D

 58 61  0  0  1  0            999 V2000
    2.2360    1.3630   -0.5530 F   0  0
    0.9610    1.8650   -0.5860 C   0  0
    1.0020    3.2280   -0.4530 F   0  0
    0.3710    1.5410   -1.7790 F   0  0
    0.1480    1.2660    0.5630 C   0  0  1  0  0  0
    0.2190   -0.1390    0.4670 O   0  0
    0.6760    1.6780    1.9380 C   0  0
   -1.3050    1.6890    0.3360 C   0  0
    2.1840    1.5660    2.0020 C   0  0
   -2.3050    0.7360    0.9900 C   0  0
    3.0450    2.6910    2.0780 N   0  0
    2.9730    0.3980    2.0000 C   0  0
   -2.3010   -0.5980    0.3320 C   0  0
   -2.1090    0.6190    2.5020 C   0  0
   -3.7520    1.0450    0.6060 C   0  0
    4.3360    2.1970    2.1230 C   0  0
    4.2500    0.8280    2.0740 C   0  0
   -2.6110   -1.7560    1.0720 C   0  0
   -1.9820   -0.6990   -1.0330 C   0  0
    5.6110    2.7910    2.2030 C   0  0
    5.4240    0.0210    2.1020 C   0  0
   -2.9100   -1.6720    2.3540 O   0  0
   -2.6040   -3.0100    0.4380 C   0  0
   -1.9750   -1.9550   -1.6660 C   0  0
    6.7870    2.0700    2.2340 N   0  0
    6.6860    0.6830    2.1840 C   0  0
   -2.2850   -3.1130   -0.9280 C   0  0
   -1.6450   -2.0590   -3.0820 C   0  0
   -2.1290   -1.1000   -3.9900 C   0  0
   -0.8420   -3.1190   -3.5430 C   0  0
   -1.8110   -1.2010   -5.3560 C   0  0
   -0.5250   -3.2190   -4.9100 C   0  0
   -1.0080   -2.2600   -5.8160 C   0  0
    0.1880   -0.4880    1.3710 H   0  0
    0.2310    1.0640    2.7210 H   0  0
    0.3770    2.6990    2.1740 H   0  0
   -1.4650    2.7110    0.6800 H   0  0
   -1.5140    1.7970   -0.7280 H   0  0
    2.7720    3.6460    2.0960 H   0  0
    2.6210   -0.6250    1.9510 H   0  0
   -1.3570   -0.1290    2.7580 H   0  0
   -3.0410    0.3360    2.9900 H   0  0
   -1.7870    1.5720    2.9240 H   0  0
   -4.4240    0.2690    0.9730 H   0  0
   -4.0630    2.0060    1.0160 H   0  0
   -3.8610    1.0960   -0.4780 H   0  0
   -1.7440    0.1970   -1.5920 H   0  0
    5.6740    3.8690    2.2420 H   0  0
    5.3670   -1.0570    2.0610 H   0  0
   -3.1880   -2.4670    2.8260 H   0  0
   -2.8420   -3.9010    1.0000 H   0  0
    7.5900    0.0920    2.2070 H   0  0
   -2.2830   -4.0860   -1.3980 H   0  0
   -2.7480   -0.2790   -3.6540 H   0  0
   -0.4610   -3.8650   -2.8590 H   0  0
   -2.1820   -0.4650   -6.0530 H   0  0
    0.0920   -4.0310   -5.2620 H   0  0
   -0.7640   -2.3360   -6.8650 H   0  0
  1  2  1  0
  2  3  1  0
  2  4  1  0
  2  5  1  0
  5  6  1  0
  5  7  1  0
  5  8  1  0
  7  9  1  0
  8 10  1  0
  9 11  1  0
  9 12  2  0
 10 13  1  0
 10 14  1  0
 10 15  1  0
 11 16  1  0
 12 17  1  0
 13 18  2  0
 13 19  1  0
 16 20  1  0
 17 21  1  0
 18 22  1  0
 18 23  1  0
 19 24  2  0
 20 25  2  0
 21 26  2  0
 23 27  2  0
 24 28  1  0
 28 29  2  0
 28 30  1  0
 29 31  1  0
 30 32  2  0
 31 33  2  0
 16 17  2  0
 24 27  1  0
 25 26  1  0
 32 33  1  0
  6 34  1  0
  7 35  1  0
  7 36  1  0
  8 37  1  0
  8 38  1  0
 11 39  1  0
 12 40  1  0
 14 41  1  0
 14 42  1  0
 14 43  1  0
 15 44  1  0
 15 45  1  0
 15 46  1  0
 19 47  1  0
 20 48  1  0
 21 49  1  0
 22 50  1  0
 23 51  1  0
 26 52  1  0
 27 53  1  0
 29 54  1  0
 30 55  1  0
 31 56  1  0
 32 57  1  0
 33 58  1  0
M  END
> <Name>
CHEMBL1254265

> <IC50 nM>
47

> <Molecule_ChEMBL_ID>
CHEMBL1254265

> <Smiles>
CC(C)(CC(O)(Cc1cc2ccncc2[nH]1)C(F)(F)F)c1cc(-c2ccccc2)ccc1O

$$$$
CHEMBL1253819
  SciTegic08162514323D

 51 53  0  0  1  0            999 V2000
   -2.6930    2.2440   -4.8640 F   0  0
   -1.7420    1.8360   -4.0260 C   0  0
   -2.0640    0.9790   -2.9610 C   0  0
   -0.4160    2.2640   -4.2070 C   0  0
   -1.0610    0.5470   -2.0740 C   0  0
    0.5860    1.8340   -3.3220 C   0  0
    0.2700    0.9750   -2.2540 C   0  0
   -1.4120   -0.3610   -0.9490 C   0  0
    1.2190    0.5780   -1.4300 O   0  0
   -1.2990    0.7310    0.1150 C   0  0
   -0.3730   -1.4690   -0.7740 C   0  0
   -2.8360   -0.9040   -1.0900 C   0  0
    2.5470    1.0060   -1.6880 C   0  0
   -1.9820    0.3460    1.4280 C   0  0  2  0  0  0
   -3.3650    0.2210    1.1870 O   0  0
   -1.7680    1.5160    2.3910 C   0  0
   -1.4730   -0.9800    1.9920 C   0  0
   -2.9820    2.0550    2.7320 F   0  0
   -0.9980    2.4730    1.7810 F   0  0
   -1.1330    1.0680    3.5190 F   0  0
    0.0390   -1.0080    2.0530 C   0  0
    0.7950   -2.2090    2.0550 N   0  0
    0.9300    0.0840    2.1170 C   0  0
    2.1310   -1.8460    2.1170 C   0  0
    2.1580   -0.4750    2.1540 C   0  0
    3.3320   -2.6050    2.1460 C   0  0
    3.4100    0.1700    2.2230 C   0  0
    4.5680   -1.8940    2.2150 C   0  0
    4.6150   -0.5040    2.2540 N   0  0
   -3.0860    0.6510   -2.8220 H   0  0
   -0.1640    2.9220   -5.0240 H   0  0
    1.6050    2.1640   -3.4630 H   0  0
   -1.6890    1.6760   -0.2600 H   0  0
   -0.2560    0.9940    0.2870 H   0  0
   -0.0410   -1.8690   -1.7310 H   0  0
   -0.7850   -2.2930   -0.1920 H   0  0
    0.5040   -1.0920   -0.2460 H   0  0
   -2.9770   -1.4390   -2.0280 H   0  0
   -3.5630   -0.0920   -1.0570 H   0  0
   -3.0660   -1.5900   -0.2760 H   0  0
    2.8520    0.6130   -2.6560 H   0  0
    2.5840    2.0900   -1.5720 H   0  0
    3.1990    0.5700   -0.9320 H   0  0
   -3.7700   -0.1190    2.0000 H   0  0
   -1.8260   -1.8160    1.3890 H   0  0
   -1.8810   -1.1580    2.9860 H   0  0
    0.4360   -3.1350    2.0170 H   0  0
    0.6760    1.1350    2.1330 H   0  0
    3.3130   -3.6840    2.1150 H   0  0
    3.4400    1.2500    2.2520 H   0  0
    5.4940   -2.4510    2.2400 H   0  0
  1  2  1  0
  2  3  2  0
  2  4  1  0
  3  5  1  0
  4  6  2  0
  5  7  2  0
  5  8  1  0
  7  9  1  0
  8 10  1  0
  8 11  1  0
  8 12  1  0
  9 13  1  0
 10 14  1  0
 14 15  1  0
 14 16  1  0
 14 17  1  0
 16 18  1  0
 16 19  1  0
 16 20  1  0
 17 21  1  0
 21 22  1  0
 21 23  2  0
 22 24  1  0
 23 25  1  0
 24 26  1  0
 25 27  1  0
 26 28  2  0
 27 29  2  0
  6  7  1  0
 24 25  2  0
 28 29  1  0
  3 30  1  0
  4 31  1  0
  6 32  1  0
 10 33  1  0
 10 34  1  0
 11 35  1  0
 11 36  1  0
 11 37  1  0
 12 38  1  0
 12 39  1  0
 12 40  1  0
 13 41  1  0
 13 42  1  0
 13 43  1  0
 15 44  1  0
 17 45  1  0
 17 46  1  0
 22 47  1  0
 23 48  1  0
 26 49  1  0
 27 50  1  0
 28 51  1  0
M  END
> <Name>
CHEMBL1253819

> <IC50 nM>
2

> <Molecule_ChEMBL_ID>
CHEMBL1253819

> <Smiles>
COc1ccc(F)cc1C(C)(C)C[C@@](O)(Cc1cc2cnccc2[nH]1)C(F)(F)F

$$$$
CHEMBL263091
  SciTegic08162514323D

 56 58  0  0  1  0            999 V2000
   -0.5940    1.0220    4.7640 F   0  0
   -1.4860    0.4770    3.9400 C   0  0
   -1.4550    0.7770    2.5670 C   0  0
   -2.4630   -0.4020    4.4420 C   0  0
   -2.3970    0.2010    1.6970 C   0  0
   -3.4040   -0.9770    3.5720 C   0  0
   -3.3750   -0.6800    2.1990 C   0  0
   -2.3540    0.5270    0.2460 C   0  0
   -4.2660   -1.2250    1.3930 O   0  0
   -1.6700   -0.7830   -0.1420 C   0  0
   -1.4830    1.7520   -0.0290 C   0  0
   -3.7580    0.6580   -0.3440 C   0  0
   -5.2190   -2.1130    1.9570 C   0  0
   -1.2720   -0.8260   -1.6190 C   0  0  1  0  0  0
   -2.3110   -0.2440   -2.3730 O   0  0
   -0.0350    0.0230   -1.7300 C   0  0
   -1.0490   -2.2500   -2.1290 C   0  0
   -0.0120    0.9980   -2.4450 O   0  0
    1.0700   -0.3280   -1.0080 N   0  0
   -0.1950   -2.9100   -1.2850 F   0  0
   -0.5040   -2.2050   -3.3870 F   0  0
   -2.2500   -2.9120   -2.1760 F   0  0
    2.1850    0.4100   -1.0880 C   0  0
    3.4590   -0.2170   -1.1250 C   0  0
    2.1050    1.8280   -1.1350 C   0  0
    4.6370    0.5680   -1.2090 C   0  0
    3.2790    2.6130   -1.2190 C   0  0
    4.5410    1.9750   -1.2560 C   0  0
    5.9920   -0.0530   -1.2480 C   0  0
    5.8140    2.7440   -1.3440 C   0  0
    7.0450    0.6890   -1.3240 N   0  0
    6.1680   -1.5490   -1.2010 C   0  0
    5.8300    3.9530   -1.3910 O   0  0
    7.0290    2.1500   -1.3750 O   0  0
   -0.7030    1.4530    2.1820 H   0  0
   -2.4900   -0.6370    5.4960 H   0  0
   -4.1530   -1.6520    3.9630 H   0  0
   -2.2990   -1.6370    0.1110 H   0  0
   -0.8070   -0.9730    0.4940 H   0  0
   -1.7660    2.6020    0.5920 H   0  0
   -1.5670    2.0590   -1.0720 H   0  0
   -0.4340    1.5310    0.1680 H   0  0
   -4.4750    1.0250    0.3910 H   0  0
   -4.1150   -0.3070   -0.7050 H   0  0
   -3.7600    1.3520   -1.1850 H   0  0
   -4.6880   -2.9710    2.3650 H   0  0
   -5.8380   -1.5510    2.6540 H   0  0
   -5.8650   -2.4730    1.1540 H   0  0
   -2.1640    0.7150   -2.3710 H   0  0
    1.0450   -1.1350   -0.4180 H   0  0
    3.5330   -1.2950   -1.0900 H   0  0
    1.1460    2.3280   -1.1050 H   0  0
    3.2030    3.6910   -1.2560 H   0  0
    7.2110   -1.8670   -1.2360 H   0  0
    5.6520   -2.0100   -2.0450 H   0  0
    5.7300   -1.9450   -0.2850 H   0  0
  1  2  1  0
  2  3  2  0
  2  4  1  0
  3  5  1  0
  4  6  2  0
  5  7  2  0
  5  8  1  0
  7  9  1  0
  8 10  1  0
  8 11  1  0
  8 12  1  0
  9 13  1  0
 10 14  1  0
 14 15  1  0
 14 16  1  0
 14 17  1  0
 16 18  2  0
 16 19  1  0
 17 20  1  0
 17 21  1  0
 17 22  1  0
 19 23  1  0
 23 24  2  0
 23 25  1  0
 24 26  1  0
 25 27  2  0
 26 28  2  0
 26 29  1  0
 28 30  1  0
 29 31  2  0
 29 32  1  0
 30 33  2  0
 30 34  1  0
  6  7  1  0
 27 28  1  0
 31 34  1  0
  3 35  1  0
  4 36  1  0
  6 37  1  0
 10 38  1  0
 10 39  1  0
 11 40  1  0
 11 41  1  0
 11 42  1  0
 12 43  1  0
 12 44  1  0
 12 45  1  0
 13 46  1  0
 13 47  1  0
 13 48  1  0
 15 49  1  0
 19 50  1  0
 24 51  1  0
 25 52  1  0
 27 53  1  0
 32 54  1  0
 32 55  1  0
 32 56  1  0
M  END
> <Name>
CHEMBL263091

> <IC50 nM>
1

> <Molecule_ChEMBL_ID>
CHEMBL263091

> <Smiles>
COc1ccc(F)cc1C(C)(C)CC(O)(C(=O)Nc1ccc2c(=O)onc(C)c2c1)C(F)(F)F

$$$$
CHEMBL2023242
  SciTegic08162514323D

 84 91  0  0  1  0            999 V2000
   11.6490    0.2360    3.0060 F   0  0
   10.6410    0.4040    2.1500 C   0  0
   10.6760    1.4570    1.2210 C   0  0
    9.5410   -0.4710    2.1800 C   0  0
    9.6130    1.6370    0.3180 C   0  0
    8.4770   -0.2950    1.2770 C   0  0
    8.5100    0.7600    0.3460 C   0  0
    7.4830    0.9320   -0.5270 N   0  0
    7.6250    1.2400   -1.8440 N   0  0
    6.1620    0.8200   -0.2270 C   0  0
    6.4400    1.3630   -2.4980 C   0  0
    5.5660    1.1020   -1.4450 C   0  0
    5.4260    0.5000    1.0140 C   0  0
    4.0430    1.1110   -1.5100 C   0  0
    4.0980    0.2660    0.9220 C   0  0
    3.4020    0.1620   -0.4450 C   0  0  1  0  0  0
    3.2600    0.0880    2.1740 C   0  0
    1.8930    0.4710   -0.2420 C   0  0  1  0  0  0
    3.5940   -1.2870   -0.9160 C   0  0
    2.0820   -0.8730    1.9630 C   0  0
    1.0610    0.7010   -1.5310 C   0  0  1  0  0  0
    1.2290   -0.5700    0.7070 C   0  0  1  0  0  0
    1.1250   -0.4280   -2.3830 O   0  0
   -0.4160    1.0410   -1.2190 C   0  0
   -0.1820   -0.0490    1.0310 C   0  0  1  0  0  0
   -1.0550    0.0390   -0.2360 C   0  0  1  0  0  0
   -1.0530   -0.9000    1.9550 C   0  0
   -2.4320    0.4000    0.3670 C   0  0  1  0  0  0
   -1.2050   -1.3460   -0.8940 C   0  0
   -2.4980   -0.5290    1.5980 C   0  0
   -2.4470    1.7460    0.8150 O   0  0
   -3.6020    0.2380   -0.5780 C   0  0
   -3.4340    0.1990   -1.7730 O   0  0
   -4.9810    0.1290    0.0160 C   0  0
   -5.9240   -0.1000   -1.0200 O   0  0
   -7.2150   -0.2250   -0.6800 C   0  0
   -7.7030   -0.1480    0.6150 N   0  0
   -8.2560   -0.4490   -1.5700 N   0  0
   -9.0290   -0.3240    0.5100 C   0  0
   -9.3650   -0.5060   -0.8140 C   0  0
   -8.1560   -0.5940   -3.0310 C   0  0
  -10.0140   -0.3380    1.5250 C   0  0
  -10.7130   -0.7130   -1.2010 C   0  0
  -11.3690   -0.5450    1.1620 C   0  0
  -11.7190   -0.7300   -0.2010 C   0  0
   11.5200    2.1330    1.1970 H   0  0
    9.5100   -1.2810    2.8930 H   0  0
    9.6580    2.4510   -0.3890 H   0  0
    7.6410   -0.9790    1.3150 H   0  0
    6.2720    1.6020   -3.5410 H   0  0
    5.9380    0.4610    1.9650 H   0  0
    3.7150    2.1370   -1.3340 H   0  0
    3.7150    0.8480   -2.5160 H   0  0
    2.8810    1.0640    2.4790 H   0  0
    3.8790   -0.2710    2.9940 H   0  0
    1.8570    1.4340    0.2730 H   0  0
    4.6370   -1.5060   -1.1460 H   0  0
    3.0080   -1.4820   -1.8140 H   0  0
    3.2680   -1.9880   -0.1480 H   0  0
    1.4690   -0.8960    2.8630 H   0  0
    2.4880   -1.8810    1.8690 H   0  0
    1.4820    1.5310   -2.1020 H   0  0
    1.1290   -1.5160    0.1700 H   0  0
    1.7290   -0.2050   -3.1070 H   0  0
   -1.0040    1.1050   -2.1370 H   0  0
   -0.4390    2.0430   -0.7870 H   0  0
   -0.0820    0.9320    1.4810 H   0  0
   -0.8340   -0.7190    2.9960 H   0  0
   -0.8810   -1.9510    1.7700 H   0  0
   -1.7830   -2.0290   -0.2730 H   0  0
   -0.2290   -1.7970   -1.0680 H   0  0
   -1.7110   -1.2620   -1.8550 H   0  0
   -3.0080   -0.0740    2.4380 H   0  0
   -3.0430   -1.4340    1.3690 H   0  0
   -3.2990    1.8910    1.2560 H   0  0
   -5.0220   -0.7130    0.7050 H   0  0
   -5.2420    1.0610    0.5180 H   0  0
   -7.1170   -0.4770   -3.3380 H   0  0
   -8.5800   -1.5530   -3.3320 H   0  0
   -8.7360    0.1930   -3.5140 H   0  0
   -9.7460   -0.1950    2.5630 H   0  0
  -10.9770   -0.8540   -2.2400 H   0  0
  -12.1370   -0.5590    1.9220 H   0  0
  -12.7500   -0.8870   -0.4780 H   0  0
  1  2  1  0
  2  3  2  0
  2  4  1  0
  3  5  1  0
  4  6  2  0
  5  7  2  0
  7  8  1  0
  8  9  1  0
  8 10  1  0
  9 11  2  0
 10 12  2  0
 10 13  1  0
 12 14  1  0
 13 15  2  0
 14 16  1  0
 15 17  1  0
 16 18  1  0
 16 19  1  0
 17 20  1  0
 18 21  1  0
 18 22  1  0
 21 23  1  0
 21 24  1  0
 22 25  1  0
 24 26  1  0
 25 27  1  0
 26 28  1  0
 26 29  1  0
 27 30  1  0
 28 31  1  0
 28 32  1  0
 32 33  2  0
 32 34  1  0
 34 35  1  0
 35 36  1  0
 36 37  2  0
 36 38  1  0
 37 39  1  0
 38 40  1  0
 38 41  1  0
 39 42  1  0
 40 43  1  0
 42 44  2  0
 43 45  2  0
  6  7  1  0
 11 12  1  0
 15 16  1  0
 22 20  1  0
 25 26  1  0
 28 30  1  0
 39 40  2  0
 44 45  1  0
  3 46  1  0
  4 47  1  0
  5 48  1  0
  6 49  1  0
 11 50  1  0
 13 51  1  0
 14 52  1  0
 14 53  1  0
 17 54  1  0
 17 55  1  0
 18 56  1  0
 19 57  1  0
 19 58  1  0
 19 59  1  0
 20 60  1  0
 20 61  1  0
 21 62  1  0
 22 63  1  0
 23 64  1  0
 24 65  1  0
 24 66  1  0
 25 67  1  0
 27 68  1  0
 27 69  1  0
 29 70  1  0
 29 71  1  0
 29 72  1  0
 30 73  1  0
 30 74  1  0
 31 75  1  0
 34 76  1  0
 34 77  1  0
 41 78  1  0
 41 79  1  0
 41 80  1  0
 42 81  1  0
 43 82  1  0
 44 83  1  0
 45 84  1  0
M  END
> <Name>
CHEMBL2023242

> <IC50 nM>
2.9

> <Molecule_ChEMBL_ID>
CHEMBL2023242

> <Smiles>
Cn1c(OCC(=O)[C@@]2(O)CC[C@H]3[C@@H]4CCC5=Cc6c(cnn6-c6ccc(F)cc6)C[C@]5(C)[C@H]4[C@@H](O)C[C@@]32C)nc2ccccc21

$$$$
CHEMBL3358935
  SciTegic08162514323D

 64 67  0  0  1  0            999 V2000
   -3.3400    5.7910    4.1840 F   0  0
   -3.0690    5.6450    2.8910 C   0  0
   -2.9420    4.3570    2.3380 C   0  0
   -2.9080    6.7750    2.0720 C   0  0
   -2.6540    4.2030    0.9690 C   0  0
   -2.6210    6.6210    0.7070 C   0  0
   -2.4920    5.3360    0.1500 C   0  0
   -2.5220    2.8360    0.3970 C   0  0
   -2.2230    5.2030   -1.1350 O   0  0
   -0.9920    2.8690    0.3790 C   0  0
   -3.1250    2.7520   -1.0060 C   0  0
   -3.0780    1.7710    1.3440 C   0  0
   -2.0940    6.3830   -1.9140 C   0  0
   -0.3790    1.5190    0.0040 C   0  0  1  0  0  0
   -1.2030    0.9140   -0.9670 O   0  0
    0.9750    1.8220   -0.6430 C   0  0
   -0.2640    0.5700    1.1950 C   0  0
    1.5020    0.6680   -1.1600 F   0  0
    1.8280    2.3300    0.3030 F   0  0
    0.8080    2.7400   -1.6460 F   0  0
    0.5860   -0.6350    0.8570 C   0  0
    1.9220   -0.7950    1.3090 N   0  0
    0.2400   -1.7580    0.0800 C   0  0
    2.3650   -2.0060    0.8050 C   0  0
    1.3360   -2.5470    0.0780 C   0  0
    3.5740   -2.7210    0.8950 C   0  0
    1.4800   -3.8050   -0.5740 C   0  0
    3.7850   -3.9420    0.2890 N   0  0
    2.7340   -4.4850   -0.4470 C   0  0
    2.9120   -5.6740   -1.0470 N   0  0
    1.7710   -6.5840   -1.3200 C   0  0
    4.2560   -6.1370   -1.4710 C   0  0
    2.1310   -8.0590   -1.0310 C   0  0
    4.4710   -7.6350   -1.1740 C   0  0
    3.3690   -8.4060   -1.6370 O   0  0
   -3.0650    3.4860    2.9670 H   0  0
   -3.0040    7.7680    2.4920 H   0  0
   -2.4980    7.4940    0.0820 H   0  0
   -0.6040    3.2170    1.3360 H   0  0
   -0.6310    3.6540   -0.2830 H   0  0
   -3.9610    3.4410   -1.1290 H   0  0
   -3.4900    1.7460   -1.2090 H   0  0
   -2.3790    2.9960   -1.7620 H   0  0
   -4.0940    2.0040    1.6620 H   0  0
   -2.4590    1.6910    2.2380 H   0  0
   -3.0940    0.7970    0.8590 H   0  0
   -3.0450    6.9160   -1.8890 H   0  0
   -1.2230    6.9340   -1.5570 H   0  0
   -1.9020    6.0900   -2.9450 H   0  0
   -1.6940    0.2050   -0.5210 H   0  0
   -1.2500    0.2400    1.5200 H   0  0
    0.1600    1.0840    2.0590 H   0  0
    2.4370   -0.1620    1.8750 H   0  0
   -0.7070   -1.9430   -0.4100 H   0  0
    4.3850   -2.2930    1.4690 H   0  0
    0.6660   -4.2250   -1.1480 H   0  0
    1.4900   -6.4710   -2.3650 H   0  0
    0.9000   -6.3010   -0.7280 H   0  0
    5.0390   -5.5550   -0.9820 H   0  0
    4.3550   -5.9550   -2.5410 H   0  0
    2.2030   -8.2440    0.0410 H   0  0
    1.3610   -8.7210   -1.4280 H   0  0
    4.5940   -7.8130   -0.1030 H   0  0
    5.3710   -7.9980   -1.6720 H   0  0
  1  2  1  0
  2  3  2  0
  2  4  1  0
  3  5  1  0
  4  6  2  0
  5  7  2  0
  5  8  1  0
  7  9  1  0
  8 10  1  0
  8 11  1  0
  8 12  1  0
  9 13  1  0
 10 14  1  0
 14 15  1  0
 14 16  1  0
 14 17  1  0
 16 18  1  0
 16 19  1  0
 16 20  1  0
 17 21  1  0
 21 22  1  0
 21 23  2  0
 22 24  1  0
 23 25  1  0
 24 26  1  0
 25 27  1  0
 26 28  2  0
 27 29  2  0
 29 30  1  0
 30 31  1  0
 30 32  1  0
 31 33  1  0
 32 34  1  0
 33 35  1  0
  6  7  1  0
 24 25  2  0
 28 29  1  0
 34 35  1  0
  3 36  1  0
  4 37  1  0
  6 38  1  0
 10 39  1  0
 10 40  1  0
 11 41  1  0
 11 42  1  0
 11 43  1  0
 12 44  1  0
 12 45  1  0
 12 46  1  0
 13 47  1  0
 13 48  1  0
 13 49  1  0
 15 50  1  0
 17 51  1  0
 17 52  1  0
 22 53  1  0
 23 54  1  0
 26 55  1  0
 27 56  1  0
 31 57  1  0
 31 58  1  0
 32 59  1  0
 32 60  1  0
 33 61  1  0
 33 62  1  0
 34 63  1  0
 34 64  1  0
M  END
> <Name>
CHEMBL3358935

> <IC50 nM>
2

> <Molecule_ChEMBL_ID>
CHEMBL3358935

> <Smiles>
COc1ccc(F)cc1C(C)(C)CC(O)(Cc1cc2cc(N3CCOCC3)ncc2[nH]1)C(F)(F)F

$$$$
CHEMBL3352882
  SciTegic08162514323D

 64 67  0  0  1  0            999 V2000
   -0.5820   -0.6560    2.1700 F   0  0
   -0.4690    0.6930    2.3830 C   0  0
   -1.6460    1.1780    2.8910 F   0  0
    0.5450    0.9320    3.2750 F   0  0
   -0.1560    1.3930    1.0610 C   0  0  1  0  0  0
    0.9470    0.7460    0.4690 O   0  0
   -1.3260    1.3400    0.0760 C   0  0
    0.2560    2.8220    1.4100 C   0  0
   -1.7480   -0.0880   -0.1990 C   0  0
    1.6560    3.1740    0.9040 C   0  0
   -2.9040   -0.6800    0.3730 N   0  0
   -1.1170   -1.0410   -1.0220 C   0  0
    1.9590    4.6190    1.0840 C   0  0
    2.7420    2.2890    1.5200 C   0  0
    1.7360    3.2310   -0.6210 C   0  0
   -2.9610   -1.9770   -0.1070 C   0  0
   -1.8790   -2.1520   -0.9340 C   0  0
    3.2480    5.1270    0.8220 C   0  0
    0.9400    5.4850    1.5230 C   0  0
   -3.8500   -3.0530    0.0780 C   0  0
   -1.6520   -3.3960   -1.5880 C   0  0
    4.3440    4.2250    0.3570 C   0  0
    3.5100    6.4980    1.0000 C   0  0
    1.2050    6.8540    1.6990 C   0  0
   -3.6910   -4.2830   -0.5250 N   0  0
   -2.5900   -4.4530   -1.3590 C   0  0
    4.2870    3.6820   -0.7230 O   0  0
    5.4200    4.0200    1.1740 N   0  0
    2.4900    7.3600    1.4370 C   0  0
   -2.4120   -5.6430   -1.9590 N   0  0
   -1.0680   -6.1050   -2.3850 C   0  0
   -3.5530   -6.5550   -2.2320 C   0  0
   -0.8530   -7.6050   -2.0860 C   0  0
   -3.1930   -8.0270   -1.9430 C   0  0
   -1.9550   -8.3750   -2.5490 O   0  0
    0.8630    0.8590   -0.4920 H   0  0
   -1.0620    1.8280   -0.8630 H   0  0
   -2.1780    1.9040    0.4590 H   0  0
   -0.4780    3.5370    1.0370 H   0  0
    0.1800    2.9940    2.4840 H   0  0
   -3.5470   -0.2480    0.9960 H   0  0
   -0.2110   -0.9080   -1.6000 H   0  0
    3.3990    2.8560    2.1820 H   0  0
    3.3610    1.8420    0.7400 H   0  0
    2.2990    1.4810    2.1000 H   0  0
    2.0980    4.2050   -0.9510 H   0  0
    2.4010    2.4550   -1.0020 H   0  0
    0.7520    3.0720   -1.0640 H   0  0
   -0.0490    5.1040    1.7250 H   0  0
   -4.6990   -2.9100    0.7280 H   0  0
   -0.7950   -3.5310   -2.2360 H   0  0
    4.4940    6.8990    0.8030 H   0  0
    0.4220    7.5160    2.0350 H   0  0
    5.4900    4.4590    2.0700 H   0  0
    6.1640    3.4180    0.8870 H   0  0
    2.6930    8.4120    1.5740 H   0  0
   -0.2850   -5.5250   -1.8950 H   0  0
   -0.9690   -5.9260   -3.4550 H   0  0
   -3.8340   -6.4410   -3.2790 H   0  0
   -4.4240   -6.2710   -1.6430 H   0  0
   -0.7300   -7.7830   -1.0180 H   0  0
    0.0470   -7.9690   -2.5840 H   0  0
   -3.1210   -8.2150   -0.8710 H   0  0
   -3.9630   -8.6910   -2.3400 H   0  0
  1  2  1  0
  2  3  1  0
  2  4  1  0
  2  5  1  0
  5  6  1  0
  5  7  1  0
  5  8  1  0
  7  9  1  0
  8 10  1  0
  9 11  1  0
  9 12  2  0
 10 13  1  0
 10 14  1  0
 10 15  1  0
 11 16  1  0
 12 17  1  0
 13 18  2  0
 13 19  1  0
 16 20  1  0
 17 21  1  0
 18 22  1  0
 18 23  1  0
 19 24  2  0
 20 25  2  0
 21 26  2  0
 22 27  2  0
 22 28  1  0
 23 29  2  0
 26 30  1  0
 30 31  1  0
 30 32  1  0
 31 33  1  0
 32 34  1  0
 33 35  1  0
 16 17  2  0
 24 29  1  0
 25 26  1  0
 34 35  1  0
  6 36  1  0
  7 37  1  0
  7 38  1  0
  8 39  1  0
  8 40  1  0
 11 41  1  0
 12 42  1  0
 14 43  1  0
 14 44  1  0
 14 45  1  0
 15 46  1  0
 15 47  1  0
 15 48  1  0
 19 49  1  0
 20 50  1  0
 21 51  1  0
 23 52  1  0
 24 53  1  0
 28 54  1  0
 28 55  1  0
 29 56  1  0
 31 57  1  0
 31 58  1  0
 32 59  1  0
 32 60  1  0
 33 61  1  0
 33 62  1  0
 34 63  1  0
 34 64  1  0
M  END
> <Name>
CHEMBL3352882

> <IC50 nM>
19

> <Molecule_ChEMBL_ID>
CHEMBL3352882

> <Smiles>
CC(C)(CC(O)(Cc1cc2cc(N3CCOCC3)ncc2[nH]1)C(F)(F)F)c1ccccc1C(N)=O

$$$$
CHEMBL3358940
  SciTegic08162514323D

 66 69  0  0  1  0            999 V2000
    0.0740    6.2170    1.8790 S   0  0
   -1.2340    6.2320    1.2500 O   0  0
    1.0100    7.1500    1.2750 O   0  0
    0.7270    4.6250    1.7380 C   0  0
   -0.1130    6.6270    3.6090 C   0  0
    0.8750    4.0410    0.4690 C   0  0
    1.1070    3.9200    2.8930 C   0  0
    1.4060    2.7440    0.3530 C   0  0
    1.6390    2.6230    2.7750 C   0  0
    1.7890    2.0350    1.5080 C   0  0
    1.5640    2.1210   -0.9860 C   0  0
    2.4140    0.8500   -0.9200 C   0  0
    2.0860    3.1250   -2.0160 C   0  0
    0.0740    1.8280   -1.1520 C   0  0
    2.7700    0.3050   -2.3050 C   0  0  1  0  0  0
    3.5940    1.2480   -2.9510 O   0  0
    3.5840   -0.9670   -2.0740 C   0  0
    1.5370    0.0680   -3.1800 C   0  0
    4.8380   -0.8110   -2.6100 F   0  0
    2.9590   -2.0270   -2.6820 F   0  0
    3.6900   -1.2070   -0.7290 F   0  0
    0.4880   -0.7360   -2.4420 C   0  0
   -0.8890   -0.7150   -2.7830 N   0  0
    0.6640   -1.6060   -1.3460 C   0  0
   -1.5270   -1.5660   -1.8990 C   0  0
   -0.5700   -2.0740   -1.0590 C   0  0
   -2.8650   -1.9690   -1.7190 C   0  0
   -0.9140   -2.9900   -0.0240 C   0  0
   -3.2680   -2.8540   -0.7380 N   0  0
   -2.2890   -3.3630    0.1090 C   0  0
   -2.6540   -4.2270    1.0720 N   0  0
   -1.7110   -5.2330    1.6210 C   0  0
   -4.0230   -4.2250    1.6440 C   0  0
   -2.3870   -6.6130    1.7710 C   0  0
   -4.5720   -5.6600    1.7930 C   0  0
   -3.6290   -6.4960    2.4550 O   0  0
    0.8180    6.6170    4.1760 H   0  0
   -0.7950    5.9180    4.0780 H   0  0
   -0.5490    7.6210    3.7030 H   0  0
    0.5800    4.5900   -0.4140 H   0  0
    0.9920    4.3690    3.8670 H   0  0
    1.9320    2.0780    3.6600 H   0  0
    2.1970    1.0390    1.4240 H   0  0
    1.9160    0.0860   -0.3220 H   0  0
    3.3130    1.0180   -0.3300 H   0  0
    1.5800    4.0860   -1.9380 H   0  0
    1.9380    2.7520   -3.0290 H   0  0
    3.1540    3.2970   -1.8790 H   0  0
   -0.5250    2.6660   -0.7990 H   0  0
   -0.1680    1.6330   -2.1970 H   0  0
   -0.2110    0.9470   -0.5760 H   0  0
    3.6540    0.9840   -3.8830 H   0  0
    1.8130   -0.4490   -4.0980 H   0  0
    1.1070    1.0160   -3.5040 H   0  0
   -1.3130   -0.1910   -3.5140 H   0  0
    1.5920   -1.8420   -0.8460 H   0  0
   -3.6170   -1.5680   -2.3810 H   0  0
   -0.1540   -3.3870    0.6370 H   0  0
   -0.8240   -5.3200    0.9920 H   0  0
   -1.3710   -4.8810    2.5960 H   0  0
   -4.7050   -3.6310    1.0330 H   0  0
   -3.9810   -3.7440    2.6230 H   0  0
   -1.7500   -7.2950    2.3340 H   0  0
   -2.5700   -7.0690    0.7970 H   0  0
   -5.4960   -5.6620    2.3730 H   0  0
   -4.7990   -6.0960    0.8180 H   0  0
  1  2  2  0
  1  3  2  0
  1  4  1  0
  1  5  1  0
  4  6  2  0
  4  7  1  0
  6  8  1  0
  7  9  2  0
  8 10  2  0
  8 11  1  0
 11 12  1  0
 11 13  1  0
 11 14  1  0
 12 15  1  0
 15 16  1  0
 15 17  1  0
 15 18  1  0
 17 19  1  0
 17 20  1  0
 17 21  1  0
 18 22  1  0
 22 23  1  0
 22 24  2  0
 23 25  1  0
 24 26  1  0
 25 27  1  0
 26 28  1  0
 27 29  2  0
 28 30  2  0
 30 31  1  0
 31 32  1  0
 31 33  1  0
 32 34  1  0
 33 35  1  0
 34 36  1  0
  9 10  1  0
 25 26  2  0
 29 30  1  0
 35 36  1  0
  5 37  1  0
  5 38  1  0
  5 39  1  0
  6 40  1  0
  7 41  1  0
  9 42  1  0
 10 43  1  0
 12 44  1  0
 12 45  1  0
 13 46  1  0
 13 47  1  0
 13 48  1  0
 14 49  1  0
 14 50  1  0
 14 51  1  0
 16 52  1  0
 18 53  1  0
 18 54  1  0
 23 55  1  0
 24 56  1  0
 27 57  1  0
 28 58  1  0
 32 59  1  0
 32 60  1  0
 33 61  1  0
 33 62  1  0
 34 63  1  0
 34 64  1  0
 35 65  1  0
 35 66  1  0
M  END
> <Name>
CHEMBL3358940

> <IC50 nM>
62

> <Molecule_ChEMBL_ID>
CHEMBL3358940

> <Smiles>
CC(C)(CC(O)(Cc1cc2cc(N3CCOCC3)ncc2[nH]1)C(F)(F)F)c1cccc(S(C)(=O)=O)c1

$$$$
CHEMBL3358943
  SciTegic08162514323D

 60 62  0  0  1  0            999 V2000
    7.6990   -1.2700    1.5220 S   0  0
    7.6780   -2.1860    0.3970 O   0  0
    7.7760   -1.9430    2.8070 O   0  0
    6.2660   -0.3380    1.4860 C   0  0
    9.1120   -0.1840    1.3560 C   0  0
    6.3580    1.0490    1.5370 N   0  0
    5.0040   -1.0060    1.4020 C   0  0
    5.1800    1.7640    1.5060 C   0  0
    3.8280   -0.2050    1.3750 C   0  0
    3.9060    1.1640    1.4240 C   0  0
    2.5530   -0.6410    1.3030 C   0  0
    2.6130    1.6520    1.3790 N   0  0
    1.7560    0.5230    1.3030 C   0  0
    0.2480    0.6290    1.2380 C   0  0
   -0.2690    0.3090   -0.1640 C   0  0  2  0  0  0
   -0.1440   -1.0800   -0.3750 O   0  0
    0.5140    1.0310   -1.2620 C   0  0
   -1.7380    0.6910   -0.3530 C   0  0
    1.8130    0.5920   -1.2600 F   0  0
    0.4860    2.3810   -1.0270 F   0  0
   -0.0570    0.7660   -2.4800 F   0  0
   -2.6970   -0.3770    0.1740 C   0  0
   -3.9180    0.4380   -0.0820 C   0  0
   -2.6840   -1.6500   -0.6720 C   0  0
   -2.5080   -0.6560    1.6640 C   0  0
   -4.4940    0.4920   -1.3670 C   0  0
   -4.4980    1.1580    0.9790 C   0  0
   -3.8950   -0.2660   -2.5080 C   0  0
   -5.6480    1.2700   -1.5820 C   0  0
   -5.6480    1.9320    0.7580 C   0  0
   -2.8420    0.0740   -2.9940 O   0  0
   -4.5610   -1.3550   -2.9940 N   0  0
   -6.2250    1.9860   -0.5210 C   0  0
   -3.9840   -2.1110   -4.1150 C   0  0
    9.1960    0.5640    2.1430 H   0  0
    9.0550    0.3420    0.4020 H   0  0
   10.0280   -0.7750    1.3580 H   0  0
    4.9510   -2.0840    1.3630 H   0  0
    5.2400    2.8420    1.5450 H   0  0
    2.2070   -1.6660    1.2520 H   0  0
    2.3360    2.6070    1.3990 H   0  0
   -0.1950   -0.0410    1.9750 H   0  0
   -0.0590    1.6290    1.5430 H   0  0
   -0.0700   -1.4960    0.4980 H   0  0
   -1.9470    1.6560    0.1060 H   0  0
   -1.9470    0.9140   -1.4000 H   0  0
   -3.6910   -2.0120   -0.8790 H   0  0
   -2.1440   -2.4470   -0.1600 H   0  0
   -2.1910   -1.4750   -1.6290 H   0  0
   -3.4200   -1.0330    2.1250 H   0  0
   -2.2190    0.2520    2.1930 H   0  0
   -1.7250   -1.3980    1.8200 H   0  0
   -4.0610    1.1190    1.9650 H   0  0
   -6.0980    1.3180   -2.5640 H   0  0
   -6.0920    2.4840    1.5740 H   0  0
   -5.4300   -1.6350   -2.5900 H   0  0
   -7.1090    2.5820   -0.6910 H   0  0
   -3.1480   -1.5510   -4.5330 H   0  0
   -3.7110   -3.1090   -3.7710 H   0  0
   -4.7340   -2.2230   -4.8960 H   0  0
  1  2  2  0
  1  3  2  0
  1  4  1  0
  1  5  1  0
  4  6  2  0
  4  7  1  0
  6  8  1  0
  7  9  2  0
  8 10  2  0
  9 11  1  0
 10 12  1  0
 11 13  2  0
 13 14  1  0
 14 15  1  0
 15 16  1  0
 15 17  1  0
 15 18  1  0
 17 19  1  0
 17 20  1  0
 17 21  1  0
 18 22  1  0
 22 23  1  0
 22 24  1  0
 22 25  1  0
 23 26  2  0
 23 27  1  0
 26 28  1  0
 26 29  1  0
 27 30  2  0
 28 31  2  0
 28 32  1  0
 29 33  2  0
 32 34  1  0
  9 10  1  0
 12 13  1  0
 30 33  1  0
  5 35  1  0
  5 36  1  0
  5 37  1  0
  7 38  1  0
  8 39  1  0
 11 40  1  0
 12 41  1  0
 14 42  1  0
 14 43  1  0
 16 44  1  0
 18 45  1  0
 18 46  1  0
 24 47  1  0
 24 48  1  0
 24 49  1  0
 25 50  1  0
 25 51  1  0
 25 52  1  0
 27 53  1  0
 29 54  1  0
 30 55  1  0
 32 56  1  0
 33 57  1  0
 34 58  1  0
 34 59  1  0
 34 60  1  0
M  END
> <Name>
CHEMBL3358943

> <IC50 nM>
2000

> <Molecule_ChEMBL_ID>
CHEMBL3358943

> <Smiles>
CNC(=O)c1ccccc1C(C)(C)CC(O)(Cc1cc2cc(S(C)(=O)=O)ncc2[nH]1)C(F)(F)F

$$$$
CHEMBL3358951
  SciTegic08162514323D

 63 65  0  0  1  0            999 V2000
    6.4590   -1.1030    0.9280 S   0  0
    6.2620   -2.2110    1.8460 O   0  0
    6.7620   -1.5310   -0.4280 O   0  0
    5.0260   -0.1720    0.8910 C   0  0
    7.8050   -0.0880    1.5250 C   0  0
    5.1170    1.2150    0.9410 N   0  0
    3.7640   -0.8400    0.8090 C   0  0
    9.1470   -0.7830    1.2870 C   0  0
    7.5840    0.2830    2.9920 C   0  0
    3.9400    1.9320    0.9100 C   0  0
    2.5880   -0.0370    0.7790 C   0  0
    2.6660    1.3320    0.8300 C   0  0
    1.3110   -0.4750    0.7070 C   0  0
    1.3710    1.8180    0.7850 N   0  0
    0.5160    0.6900    0.7090 C   0  0
   -0.9920    0.7950    0.6430 C   0  0
   -1.5020    0.5800   -0.7830 C   0  0  2  0  0  0
   -1.0210   -0.6640   -1.2380 O   0  0
   -0.8730    1.6800   -1.6410 C   0  0
   -3.0270    0.5660   -0.8690 C   0  0
   -1.5160    1.7380   -2.8500 F   0  0
    0.4550    1.3990   -1.8420 F   0  0
   -0.9940    2.8850   -1.0000 F   0  0
   -3.5660   -0.6680   -1.5920 C   0  0
   -4.9920   -0.2660   -1.4490 C   0  0
   -3.1410   -0.7250   -3.0610 C   0  0
   -3.2710   -1.9670   -0.8420 C   0  0
   -5.6840   -0.4710   -0.2380 C   0  0
   -5.6520    0.3260   -2.5410 C   0  0
   -5.0000   -1.1000    0.9360 C   0  0
   -7.0310   -0.0820   -0.1270 C   0  0
   -6.9980    0.7150   -2.4280 C   0  0
   -4.9100   -2.3010    1.0310 O   0  0
   -4.4780   -0.2890    1.9020 N   0  0
   -7.6880    0.5100   -1.2210 C   0  0
   -8.9630    0.8770   -1.1130 F   0  0
    7.7070    0.7890    0.8870 H   0  0
    3.7110   -1.9180    0.7680 H   0  0
    9.9870   -0.1660    1.6070 H   0  0
    9.2810   -1.0060    0.2290 H   0  0
    9.1960   -1.7230    1.8360 H   0  0
    8.3850    0.9300    3.3500 H   0  0
    6.6310    0.7930    3.1210 H   0  0
    7.5720   -0.6090    3.6170 H   0  0
    3.9980    3.0100    0.9490 H   0  0
    0.9670   -1.5000    0.6560 H   0  0
    1.0960    2.7740    0.8030 H   0  0
   -1.3050    1.7700    1.0220 H   0  0
   -1.4370    0.0700    1.3240 H   0  0
   -0.9690   -1.2500   -0.4690 H   0  0
   -3.3960    1.4790   -1.3380 H   0  0
   -3.4710    0.6540    0.1230 H   0  0
   -3.0760    0.2700   -3.5020 H   0  0
   -3.8530   -1.3050   -3.6470 H   0  0
   -2.1640   -1.1970   -3.1600 H   0  0
   -4.1390   -2.6270   -0.8140 H   0  0
   -2.9770   -1.7600    0.1860 H   0  0
   -2.4550   -2.5120   -1.3200 H   0  0
   -5.1290    0.4860   -3.4730 H   0  0
   -7.5680   -0.2360    0.7990 H   0  0
   -7.4980    1.1680   -3.2700 H   0  0
   -3.9710   -0.6580    2.6800 H   0  0
   -4.5960    0.7030    1.8460 H   0  0
  1  2  2  0
  1  3  2  0
  1  4  1  0
  1  5  1  0
  4  6  2  0
  4  7  1  0
  5  8  1  0
  5  9  1  0
  6 10  1  0
  7 11  2  0
 10 12  2  0
 11 13  1  0
 12 14  1  0
 13 15  2  0
 15 16  1  0
 16 17  1  0
 17 18  1  0
 17 19  1  0
 17 20  1  0
 19 21  1  0
 19 22  1  0
 19 23  1  0
 20 24  1  0
 24 25  1  0
 24 26  1  0
 24 27  1  0
 25 28  2  0
 25 29  1  0
 28 30  1  0
 28 31  1  0
 29 32  2  0
 30 33  2  0
 30 34  1  0
 31 35  2  0
 35 36  1  0
 11 12  1  0
 14 15  1  0
 32 35  1  0
  5 37  1  0
  7 38  1  0
  8 39  1  0
  8 40  1  0
  8 41  1  0
  9 42  1  0
  9 43  1  0
  9 44  1  0
 10 45  1  0
 13 46  1  0
 14 47  1  0
 16 48  1  0
 16 49  1  0
 18 50  1  0
 20 51  1  0
 20 52  1  0
 26 53  1  0
 26 54  1  0
 26 55  1  0
 27 56  1  0
 27 57  1  0
 27 58  1  0
 29 59  1  0
 31 60  1  0
 32 61  1  0
 34 62  1  0
 34 63  1  0
M  END
> <Name>
CHEMBL3358951

> <IC50 nM>
570

> <Molecule_ChEMBL_ID>
CHEMBL3358951

> <Smiles>
CC(C)S(=O)(=O)c1cc2cc(CC(O)(CC(C)(C)c3ccc(F)cc3C(N)=O)C(F)(F)F)[nH]c2cn1

$$$$
CHEMBL3358921
  SciTegic08162514323D

 53 55  0  0  1  0            999 V2000
   -5.5180   -1.6820   -3.1370 F   0  0
   -5.0260   -0.8280   -2.2440 C   0  0
   -3.7890   -1.0860   -1.6290 C   0  0
   -5.7440    0.3340   -1.9140 C   0  0
   -3.2680   -0.1840   -0.6840 C   0  0
   -5.2270    1.2380   -0.9710 C   0  0
   -3.9880    0.9820   -0.3540 C   0  0
   -1.9550   -0.4730   -0.0410 C   0  0
   -3.4550    1.9490    0.6450 C   0  0
   -1.2290    0.6680   -0.7540 C   0  0
   -1.4260   -1.8500   -0.4410 C   0  0
   -2.0160   -0.2790    1.4730 C   0  0
    0.2930    0.5570   -0.6460 C   0  0  1  0  0  0
    0.7130   -0.5220   -1.4510 O   0  0
    0.8670    1.8460   -1.2340 C   0  0
    0.7660    0.2990    0.7850 C   0  0
    0.1290    2.2190   -2.3280 F   0  0
    2.1680    1.6350   -1.6130 F   0  0
    0.8220    2.8380   -0.2910 F   0  0
    2.2730    0.1720    0.8500 C   0  0
    3.1410    1.2910    0.9260 N   0  0
    3.0550   -1.0020    0.8480 C   0  0
    4.4300    0.7890    0.9710 C   0  0
    4.3380   -0.5780    0.9200 C   0  0
    2.5510   -2.4300    0.7770 C   0  0
    5.7090    1.3790    1.0510 C   0  0
    5.5100   -1.3890    0.9470 C   0  0
    6.8810    0.6540    1.0820 N   0  0
    6.7750   -0.7330    1.0290 C   0  0
   -3.2380   -1.9790   -1.8830 H   0  0
   -6.6950    0.5370   -2.3830 H   0  0
   -5.7850    2.1290   -0.7210 H   0  0
   -4.1860    2.0900    1.4410 H   0  0
   -2.4920    1.5960    1.0140 H   0  0
   -3.2950    2.9140    0.1640 H   0  0
   -1.5700    1.6350   -0.3830 H   0  0
   -1.5370    0.7300   -1.7970 H   0  0
   -2.1190   -2.6470   -0.1700 H   0  0
   -0.4770   -2.0550    0.0530 H   0  0
   -1.2620   -1.9020   -1.5180 H   0  0
   -1.7520   -1.1900    2.0100 H   0  0
   -3.0180    0.0120    1.7850 H   0  0
   -1.3280    0.5060    1.7890 H   0  0
    1.1250   -1.1740   -0.8630 H   0  0
    0.3070   -0.6060    1.1840 H   0  0
    0.4390    1.1000    1.4470 H   0  0
    2.8750    2.2480    0.9430 H   0  0
    1.4770   -2.5330    0.9320 H   0  0
    3.0570   -3.0310    1.5330 H   0  0
    2.7910   -2.8520   -0.1990 H   0  0
    5.7770    2.4550    1.0900 H   0  0
    5.4530   -2.4670    0.9080 H   0  0
    7.6740   -1.3280    1.0530 H   0  0
  1  2  1  0
  2  3  2  0
  2  4  1  0
  3  5  1  0
  4  6  2  0
  5  7  2  0
  5  8  1  0
  7  9  1  0
  8 10  1  0
  8 11  1  0
  8 12  1  0
 10 13  1  0
 13 14  1  0
 13 15  1  0
 13 16  1  0
 15 17  1  0
 15 18  1  0
 15 19  1  0
 16 20  1  0
 20 21  1  0
 20 22  2  0
 21 23  1  0
 22 24  1  0
 22 25  1  0
 23 26  1  0
 24 27  1  0
 26 28  2  0
 27 29  2  0
  6  7  1  0
 23 24  2  0
 28 29  1  0
  3 30  1  0
  4 31  1  0
  6 32  1  0
  9 33  1  0
  9 34  1  0
  9 35  1  0
 10 36  1  0
 10 37  1  0
 11 38  1  0
 11 39  1  0
 11 40  1  0
 12 41  1  0
 12 42  1  0
 12 43  1  0
 14 44  1  0
 16 45  1  0
 16 46  1  0
 21 47  1  0
 25 48  1  0
 25 49  1  0
 25 50  1  0
 26 51  1  0
 27 52  1  0
 29 53  1  0
M  END
> <Name>
CHEMBL3358921

> <IC50 nM>
9

> <Molecule_ChEMBL_ID>
CHEMBL3358921

> <Smiles>
Cc1ccc(F)cc1C(C)(C)CC(O)(Cc1[nH]c2cnccc2c1C)C(F)(F)F

$$$$
CHEMBL1940688
  SciTegic08162514323D

 73 78  0  0  1  0            999 V2000
    4.1250    1.6150   -0.3160 S   0  0
    5.6020    0.9060    0.0920 C   0  0
    3.0120    0.2700   -0.2110 C   0  0
    5.7010   -0.4280    0.4000 N   0  0
    6.7680    1.6290    0.1310 N   0  0
    1.6230    0.7380   -0.5510 C   0  0
    7.0220   -0.5450    0.6500 C   0  0
    7.6620    0.6860    0.4880 C   0  0
    6.9810    3.0590   -0.1430 C   0  0
    1.3890    1.9100   -0.7340 O   0  0
    0.5270   -0.2990   -0.6540 C   0  0  2  0  0  0
    7.7500   -1.6990    1.0250 C   0  0
    9.0570    0.8090    0.6970 C   0  0
    0.6330   -0.8930   -1.9390 O   0  0
   -0.8980    0.2540   -0.4180 C   0  0  2  0  0  0
    0.5980   -1.3870    0.4430 C   0  0  1  0  0  0
    9.1490   -1.5880    1.2380 C   0  0
    9.7990   -0.3380    1.0740 C   0  0
   -1.7190   -1.0370   -0.2890 C   0  0  1  0  0  0
   -1.5570    1.0820   -1.5350 C   0  0
   -0.8650    1.0310    0.9100 C   0  0
   -0.8380   -1.9180    0.6020 C   0  0
    1.6110   -2.5060    0.2110 C   0  0
   -3.1490   -0.7640    0.2150 C   0  0  1  0  0  0
   -3.0330    1.4180   -1.2110 C   0  0  1  0  0  0
   -3.8890    0.1820   -0.7680 C   0  0  2  0  0  0
   -3.9180   -2.0920    0.3540 C   0  0
   -3.0700    2.4490   -0.2440 O   0  0
   -5.3300    0.5080   -0.2380 C   0  0  2  0  0  0
   -5.3540   -1.8630    0.8540 C   0  0
   -6.0880   -0.7850    0.0780 C   0  0
   -6.0800    1.4080   -1.2150 C   0  0
   -5.2870    1.2660    1.0960 C   0  0
   -7.3730   -0.9730   -0.2910 C   0  0
   -7.3630    1.1950   -1.5680 C   0  0
   -8.1060    0.0410   -1.0570 C   0  0
   -9.2890   -0.0740   -1.2680 O   0  0
    3.3200   -0.5120   -0.9060 H   0  0
    3.0290   -0.1390    0.8010 H   0  0
    6.0740    3.6040   -0.4160 H   0  0
    7.6930    3.1700   -0.9610 H   0  0
    7.4040    3.5390    0.7380 H   0  0
    7.2560   -2.6500    1.1520 H   0  0
    9.5530    1.7600    0.5720 H   0  0
    1.5450   -1.2090   -2.0350 H   0  0
    0.8630   -0.9140    1.3790 H   0  0
    9.7190   -2.4590    1.5250 H   0  0
   10.8630   -0.2600    1.2360 H   0  0
   -1.7910   -1.5120   -1.2580 H   0  0
   -1.5310    0.5200   -2.4710 H   0  0
   -0.9840    1.9960   -1.7190 H   0  0
   -1.8670    1.2360    1.2870 H   0  0
   -0.3540    1.9860    0.7870 H   0  0
   -0.3320    0.4650    1.6740 H   0  0
   -0.9380   -2.9570    0.3160 H   0  0
   -1.1470   -1.8440    1.6330 H   0  0
    1.5180   -3.2790    0.9750 H   0  0
    1.4690   -2.9590   -0.7710 H   0  0
    2.6290   -2.1190    0.2540 H   0  0
   -3.0960   -0.2910    1.1970 H   0  0
   -3.4710    1.8460   -2.1150 H   0  0
   -4.0250   -0.3930   -1.6880 H   0  0
   -3.9470   -2.6110   -0.6050 H   0  0
   -3.4060   -2.7580    1.0490 H   0  0
   -3.5040    3.2130   -0.6560 H   0  0
   -5.9020   -2.8070    0.8140 H   0  0
   -5.3240   -1.5720    1.9040 H   0  0
   -5.5760    2.2600   -1.6520 H   0  0
   -6.2340    1.1970    1.6310 H   0  0
   -5.0700    2.3200    0.9320 H   0  0
   -4.5080    0.8610    1.7420 H   0  0
   -7.8810   -1.8870   -0.0180 H   0  0
   -7.8460    1.8930   -2.2360 H   0  0
  1  2  1  0
  1  3  1  0
  2  4  2  0
  2  5  1  0
  3  6  1  0
  4  7  1  0
  5  8  1  0
  5  9  1  0
  6 10  2  0
  6 11  1  0
  7 12  1  0
  8 13  1  0
 11 14  1  0
 11 15  1  0
 11 16  1  0
 12 17  2  0
 13 18  2  0
 15 19  1  0
 15 20  1  0
 15 21  1  0
 16 22  1  0
 16 23  1  0
 19 24  1  0
 20 25  1  0
 26 24  1  0
 24 27  1  0
 25 28  1  0
 26 29  1  0
 27 30  1  0
 29 31  1  0
 29 32  1  0
 29 33  1  0
 31 34  2  0
 32 35  2  0
 34 36  1  0
 36 37  2  0
  7  8  2  0
 17 18  1  0
 19 22  1  0
 25 26  1  0
 30 31  1  0
 35 36  1  0
  3 38  1  0
  3 39  1  0
  9 40  1  0
  9 41  1  0
  9 42  1  0
 12 43  1  0
 13 44  1  0
 14 45  1  0
 16 46  1  0
 17 47  1  0
 18 48  1  0
 19 49  1  0
 20 50  1  0
 20 51  1  0
 21 52  1  0
 21 53  1  0
 21 54  1  0
 22 55  1  0
 22 56  1  0
 23 57  1  0
 23 58  1  0
 23 59  1  0
 24 60  1  0
 25 61  1  0
 26 62  1  0
 27 63  1  0
 27 64  1  0
 28 65  1  0
 30 66  1  0
 30 67  1  0
 32 68  1  0
 33 69  1  0
 33 70  1  0
 33 71  1  0
 34 72  1  0
 35 73  1  0
M  END
> <Name>
CHEMBL1940688

> <IC50 nM>
69.3

> <Molecule_ChEMBL_ID>
CHEMBL1940688

> <Smiles>
C[C@@H]1C[C@H]2[C@@H]3CCC4=CC(=O)C=C[C@]4(C)[C@H]3[C@@H](O)C[C@]2(C)[C@@]1(O)C(=O)CSc1nc2ccccc2n1C

$$$$
CHEMBL1940690
  SciTegic08162514323D

 72 77  0  0  1  0            999 V2000
    4.2830    1.3160   -0.2260 S   0  0
    5.7680    0.6030    0.1880 C   0  0
    3.1720   -0.0310   -0.1310 C   0  0
    6.1190   -0.6910    0.5270 N   0  0
    6.8090    1.6040    0.1540 C   0  0
    1.7850    0.4370   -0.4750 C   0  0
    7.4080   -1.0590    0.8340 C   0  0
    8.1600    1.2270    0.4770 C   0  0
    6.5570    2.9670   -0.1850 C   0  0
    1.5510    1.6070   -0.6620 O   0  0
    0.6890   -0.6020   -0.5780 C   0  0  2  0  0  0
    8.4570   -0.1170    0.8170 C   0  0
    9.2050    2.1840    0.4550 C   0  0
    7.6080    3.9140   -0.2050 C   0  0
    0.7950   -1.1930   -1.8630 O   0  0
   -0.7360   -0.0470   -0.3420 C   0  0  2  0  0  0
    0.7580   -1.6900    0.5200 C   0  0  1  0  0  0
    8.9260    3.5250    0.1150 C   0  0
   -1.5570   -1.3380   -0.2130 C   0  0  1  0  0  0
   -1.3950    0.7810   -1.4590 C   0  0
   -0.7030    0.7300    0.9860 C   0  0
   -0.6780   -2.2190    0.6760 C   0  0
    1.7730   -2.8090    0.2870 C   0  0
   -2.9860   -1.0640    0.2890 C   0  0  1  0  0  0
   -2.8710    1.1150   -1.1350 C   0  0  1  0  0  0
   -3.7290   -0.1190   -0.6910 C   0  0  2  0  0  0
   -3.7580   -2.3930    0.4300 C   0  0
   -2.9080    2.1480   -0.1680 O   0  0
   -5.1680    0.2070   -0.1620 C   0  0  2  0  0  0
   -5.1910   -2.1660    0.9300 C   0  0
   -5.9260   -1.0860    0.1540 C   0  0
   -5.9200    1.1070   -1.1410 C   0  0
   -5.1250    0.9630    1.1700 C   0  0
   -7.2110   -1.2730   -0.2150 C   0  0
   -7.2010    0.8950   -1.4920 C   0  0
   -7.9430   -0.2620   -0.9800 C   0  0
   -9.1290   -0.3750   -1.1910 O   0  0
    3.4840   -0.8110   -0.8280 H   0  0
    3.1860   -0.4410    0.8790 H   0  0
    7.6210   -2.0860    1.0920 H   0  0
    5.5760    3.3360   -0.4390 H   0  0
    9.4610   -0.4320    1.0630 H   0  0
   10.2230    1.9040    0.6990 H   0  0
    7.3990    4.9400   -0.4650 H   0  0
    1.7050   -1.5120   -1.9590 H   0  0
    1.0250   -1.2150    1.4550 H   0  0
    9.7210    4.2540    0.1000 H   0  0
   -1.6290   -1.8130   -1.1820 H   0  0
   -1.3690    0.2170   -2.3940 H   0  0
   -0.8240    1.6930   -1.6430 H   0  0
   -1.7050    0.9390    1.3610 H   0  0
   -0.1870    1.6820    0.8630 H   0  0
   -0.1740    0.1620    1.7520 H   0  0
   -0.7750   -3.2580    0.3930 H   0  0
   -0.9860   -2.1450    1.7090 H   0  0
    1.6820   -3.5760    1.0530 H   0  0
    1.6270   -3.2640   -0.6930 H   0  0
    2.7910   -2.4200    0.3240 H   0  0
   -2.9340   -0.5920    1.2720 H   0  0
   -3.3090    1.5430   -2.0390 H   0  0
   -3.8630   -0.6950   -1.6110 H   0  0
   -3.7850   -2.9140   -0.5290 H   0  0
   -3.2460   -3.0590    1.1250 H   0  0
   -3.3520    2.9080   -0.5760 H   0  0
   -5.7400   -3.1070    0.8910 H   0  0
   -5.1620   -1.8750    1.9790 H   0  0
   -5.4140    1.9590   -1.5760 H   0  0
   -6.0720    0.8960    1.7070 H   0  0
   -4.9100    2.0200    1.0080 H   0  0
   -4.3480    0.5610    1.8180 H   0  0
   -7.7190   -2.1880    0.0590 H   0  0
   -7.6860    1.5900   -2.1620 H   0  0
  1  2  1  0
  1  3  1  0
  2  4  2  0
  2  5  1  0
  3  6  1  0
  4  7  1  0
  5  8  1  0
  5  9  2  0
  6 10  2  0
  6 11  1  0
  7 12  2  0
  8 13  2  0
  9 14  1  0
 11 15  1  0
 11 16  1  0
 11 17  1  0
 13 18  1  0
 16 19  1  0
 16 20  1  0
 16 21  1  0
 17 22  1  0
 17 23  1  0
 19 24  1  0
 20 25  1  0
 26 24  1  0
 24 27  1  0
 25 28  1  0
 26 29  1  0
 27 30  1  0
 29 31  1  0
 29 32  1  0
 29 33  1  0
 31 34  2  0
 32 35  2  0
 34 36  1  0
 36 37  2  0
  8 12  1  0
 14 18  2  0
 19 22  1  0
 25 26  1  0
 30 31  1  0
 35 36  1  0
  3 38  1  0
  3 39  1  0
  7 40  1  0
  9 41  1  0
 12 42  1  0
 13 43  1  0
 14 44  1  0
 15 45  1  0
 17 46  1  0
 18 47  1  0
 19 48  1  0
 20 49  1  0
 20 50  1  0
 21 51  1  0
 21 52  1  0
 21 53  1  0
 22 54  1  0
 22 55  1  0
 23 56  1  0
 23 57  1  0
 23 58  1  0
 24 59  1  0
 25 60  1  0
 26 61  1  0
 27 62  1  0
 27 63  1  0
 28 64  1  0
 30 65  1  0
 30 66  1  0
 32 67  1  0
 33 68  1  0
 33 69  1  0
 33 70  1  0
 34 71  1  0
 35 72  1  0
M  END
> <Name>
CHEMBL1940690

> <IC50 nM>
17.6

> <Molecule_ChEMBL_ID>
CHEMBL1940690

> <Smiles>
C[C@@H]1C[C@H]2[C@@H]3CCC4=CC(=O)C=C[C@]4(C)[C@H]3[C@@H](O)C[C@]2(C)[C@@]1(O)C(=O)CSc1nccc2ccccc12

$$$$
CHEMBL1928872
  SciTegic08162514323D

 39 43  0  0  1  0            999 V2000
    3.8980   -0.0490    0.5760 S   0  0
    3.8150   -1.7190    0.7750 C   0  0
    2.2150    0.4900    0.5020 C   0  0  2  0  0  0
    4.8500   -2.5660    0.8070 N   0  0
    2.6680   -2.4040    0.9320 N   0  0
    1.1390   -0.5600    0.7850 C   0  0
    2.0450    1.1210   -0.8380 C   0  0
    4.3110   -3.7870    0.9790 N   0  0
    1.3710   -1.8160    0.9610 N   0  0
    2.9490   -3.7360    1.0590 C   0  0
   -0.2700   -0.1210    0.8710 C   0  0
    2.0430    2.5240   -0.9590 C   0  0
    1.8850    0.3170   -1.9800 C   0  0
   -1.3070   -1.0820    0.8810 C   0  0
   -0.5720    1.2580    0.9450 C   0  0
    1.8830    3.1190   -2.2230 C   0  0
    1.7230    0.9140   -3.2420 C   0  0
   -2.6620   -0.6660    0.9610 C   0  0
   -1.9200    1.6800    1.0240 C   0  0
    1.7230    2.3150   -3.3630 C   0  0
   -3.6640   -1.5780    0.9900 N   0  0
   -2.9650    0.7270    1.0270 C   0  0
   -4.9840   -1.1990    0.9300 C   0  0
   -4.2440    1.1530    1.1040 O   0  0
   -5.8610   -2.0290    0.9900 O   0  0
   -5.3280    0.2720    0.7790 C   0  0
    2.1110    1.3050    1.2210 H   0  0
    2.2600   -4.5620    1.1950 H   0  0
    2.1660    3.1470   -0.0860 H   0  0
    1.8830   -0.7600   -1.8930 H   0  0
   -1.0610   -2.1350    0.8260 H   0  0
    0.2170    1.9960    0.9410 H   0  0
    1.8830    4.1940   -2.3160 H   0  0
    1.6020    0.2950   -4.1190 H   0  0
   -2.1500    2.7330    1.0820 H   0  0
    1.6000    2.7720   -4.3340 H   0  0
   -3.4510   -2.5550    1.0610 H   0  0
   -5.6150    0.4610   -0.2560 H   0  0
   -6.1820    0.5330    1.4040 H   0  0
  1  2  1  0
  1  3  1  0
  2  4  2  0
  2  5  1  0
  3  6  1  0
  3  7  1  0
  4  8  1  0
  5  9  1  0
  5 10  1  0
  6 11  1  0
  7 12  2  0
  7 13  1  0
 11 14  2  0
 11 15  1  0
 12 16  1  0
 13 17  2  0
 14 18  1  0
 15 19  2  0
 16 20  2  0
 18 21  1  0
 18 22  2  0
 21 23  1  0
 22 24  1  0
 23 25  2  0
 23 26  1  0
  6  9  2  0
  8 10  2  0
 17 20  1  0
 19 22  1  0
 24 26  1  0
  3 27  1  0
 10 28  1  0
 12 29  1  0
 13 30  1  0
 14 31  1  0
 15 32  1  0
 16 33  1  0
 17 34  1  0
 19 35  1  0
 20 36  1  0
 21 37  1  0
 26 38  1  0
 26 39  1  0
M  END
> <Name>
CHEMBL1928872

> <IC50 nM>
5600

> <Molecule_ChEMBL_ID>
CHEMBL1928872

> <Smiles>
O=C1COc2ccc(C3=Nn4cnnc4SC3c3ccccc3)cc2N1

$$$$
CHEMBL1928877
  SciTegic08162514323D

 40 44  0  0  1  0            999 V2000
    3.7680    0.0490    0.5530 S   0  0
    3.6900   -1.6230    0.7480 C   0  0
    2.0880    0.6020    0.4790 C   0  0  2  0  0  0
    4.7700   -2.4360    0.7720 N   0  0
    2.5450   -2.2870    0.8990 N   0  0
    1.0100   -0.4450    0.7580 C   0  0
    1.9200    1.2380   -0.8570 C   0  0
    4.2310   -3.6880    0.9400 C   0  0
    1.2460   -1.7010    0.9320 N   0  0
    2.8240   -3.5960    1.0220 C   0  0
   -0.3980   -0.0060    0.8440 C   0  0
    1.9240    2.6390   -0.9750 C   0  0
    1.7580    0.4380   -2.0040 C   0  0
   -1.4350   -0.9690    0.8540 C   0  0
   -0.7010    1.3730    0.9180 C   0  0
    1.7660    3.2400   -2.2360 C   0  0
    1.6000    1.0390   -3.2640 C   0  0
   -2.7910   -0.5510    0.9360 C   0  0
   -2.0490    1.7930    0.9980 C   0  0
    1.6040    2.4400   -3.3810 C   0  0
   -3.7910   -1.4650    0.9630 N   0  0
   -3.0940    0.8400    1.0000 C   0  0
   -5.1130   -1.0840    0.9020 C   0  0
   -4.3710    1.2660    1.0760 O   0  0
   -5.9880   -1.9160    0.9630 O   0  0
   -5.4570    0.3850    0.7520 C   0  0
    1.9880    1.4140    1.2030 H   0  0
    4.8280   -4.5860    0.9960 H   0  0
    2.1020   -4.3890    1.1540 H   0  0
    2.0490    3.2600   -0.1000 H   0  0
    1.7540   -0.6390   -1.9220 H   0  0
   -1.1870   -2.0200    0.7990 H   0  0
    0.0900    2.1090    0.9140 H   0  0
    1.7700    4.3170   -2.3260 H   0  0
    1.4770    0.4260   -4.1440 H   0  0
   -2.2770    2.8480    1.0550 H   0  0
    1.4830    2.9020   -4.3500 H   0  0
   -3.5780   -2.4410    1.0330 H   0  0
   -5.7420    0.5760   -0.2830 H   0  0
   -6.3100    0.6470    1.3790 H   0  0
  1  2  1  0
  1  3  1  0
  2  4  2  0
  2  5  1  0
  3  6  1  0
  3  7  1  0
  4  8  1  0
  5  9  1  0
  5 10  1  0
  6 11  1  0
  7 12  2  0
  7 13  1  0
 11 14  2  0
 11 15  1  0
 12 16  1  0
 13 17  2  0
 14 18  1  0
 15 19  2  0
 16 20  2  0
 18 21  1  0
 18 22  2  0
 21 23  1  0
 22 24  1  0
 23 25  2  0
 23 26  1  0
  6  9  2  0
  8 10  2  0
 17 20  1  0
 19 22  1  0
 24 26  1  0
  3 27  1  0
  8 28  1  0
 10 29  1  0
 12 30  1  0
 13 31  1  0
 14 32  1  0
 15 33  1  0
 16 34  1  0
 17 35  1  0
 19 36  1  0
 20 37  1  0
 21 38  1  0
 26 39  1  0
 26 40  1  0
M  END
> <Name>
CHEMBL1928877

> <IC50 nM>
3500

> <Molecule_ChEMBL_ID>
CHEMBL1928877

> <Smiles>
O=C1COc2ccc(C3=Nn4ccnc4SC3c3ccccc3)cc2N1

$$$$
CHEMBL3893393
  SciTegic08162514323D

 56 58  0  0  1  0            999 V2000
   -3.7720   -0.4140    0.0880 Cl  0  0
   -2.8070   -1.5140   -0.8220 C   0  0
   -3.4240   -2.5470   -1.5610 C   0  0
   -1.3980   -1.3890   -0.8380 C   0  0
   -4.7500   -2.6880   -1.5610 F   0  0
   -2.6430   -3.4470   -2.3090 C   0  0
   -0.6250   -2.2910   -1.5880 C   0  0
   -0.7050   -0.3160   -0.0740 C   0  0  2  0  0  0
   -3.2150   -4.4140   -2.9980 O   0  0
   -1.2440   -3.3160   -2.3200 C   0  0
    0.4000    0.2700   -0.8460 N   0  0
   -0.2170   -0.8180    1.2850 C   0  0  1  0  0  0
   -2.4490   -5.0610   -4.0040 C   0  0
    0.5780    1.6050   -0.8590 C   0  0
   -0.9060   -2.0120    1.5880 O   0  0
    1.2830   -1.1150    1.3010 C   0  0
   -0.4770    0.1820    2.4120 C   0  0
    1.8730    2.2190   -0.8750 C   0  0
   -0.5740    2.4340   -0.8610 C   0  0
    1.5800   -2.0220    0.3180 F   0  0
    1.6330   -1.6330    2.5220 F   0  0
    1.9800    0.0450    1.0800 F   0  0
   -2.2560    0.4650    2.6330 S   0  0
    1.9900    3.6500   -0.8890 C   0  0
    3.0740    1.4450   -0.8750 C   0  0
   -0.4550    3.8400   -0.8750 C   0  0
   -2.3400    0.3030    4.4400 C   0  0
    3.2300    4.2620   -0.9000 N   0  0
    0.8180    4.4450   -0.8890 C   0  0
    4.3340    2.0940   -0.8890 C   0  0
   -2.2500   -1.1640    4.8610 C   0  0
    4.3850    3.5060   -0.9020 C   0  0
    5.6880    4.1880   -0.9160 C   0  0
    0.4510   -2.2010   -1.6040 H   0  0
   -1.4900    0.4300    0.0510 H   0  0
   -0.6410   -4.0040   -2.8930 H   0  0
    1.0200   -0.3220   -1.3610 H   0  0
   -1.9040   -4.4160   -4.6930 H   0  0
   -3.1170   -5.6880   -4.5920 H   0  0
   -1.7250   -5.7110   -3.5160 H   0  0
   -1.8360   -1.7770    1.7250 H   0  0
   -0.0470   -0.1720    3.3480 H   0  0
    0.0190    1.1310    2.2070 H   0  0
   -1.5660    2.0040   -0.8520 H   0  0
    3.0550    0.3650   -0.8650 H   0  0
   -1.3460    4.4530   -0.8750 H   0  0
   -1.5370    0.8830    4.8930 H   0  0
   -3.2640    0.7520    4.8010 H   0  0
    0.8810    5.5250   -0.8980 H   0  0
    5.2420    1.5100   -0.8910 H   0  0
   -2.3380   -1.2600    5.9430 H   0  0
   -3.0390   -1.7500    4.3870 H   0  0
   -1.2930   -1.5940    4.5650 H   0  0
    5.6250    5.2770   -0.9060 H   0  0
    6.2420    3.8950   -1.8070 H   0  0
    6.2680    3.8810   -0.0450 H   0  0
  1  2  1  0
  2  3  2  0
  2  4  1  0
  3  5  1  0
  3  6  1  0
  4  7  2  0
  4  8  1  0
  6  9  1  0
  6 10  2  0
  8 11  1  0
  8 12  1  0
  9 13  1  0
 11 14  1  0
 12 15  1  0
 12 16  1  0
 12 17  1  0
 14 18  2  0
 14 19  1  0
 16 20  1  0
 16 21  1  0
 16 22  1  0
 17 23  1  0
 18 24  1  0
 18 25  1  0
 19 26  2  0
 23 27  1  0
 24 28  1  0
 24 29  2  0
 25 30  2  0
 27 31  1  0
 28 32  2  0
 32 33  1  0
  7 10  1  0
 26 29  1  0
 30 32  1  0
  7 34  1  0
  8 35  1  0
 10 36  1  0
 11 37  1  0
 13 38  1  0
 13 39  1  0
 13 40  1  0
 15 41  1  0
 17 42  1  0
 17 43  1  0
 19 44  1  0
 25 45  1  0
 26 46  1  0
 27 47  1  0
 27 48  1  0
 29 49  1  0
 30 50  1  0
 31 51  1  0
 31 52  1  0
 31 53  1  0
 33 54  1  0
 33 55  1  0
 33 56  1  0
M  END
> <Name>
CHEMBL3893393

> <IC50 nM>
0.16

> <Molecule_ChEMBL_ID>
CHEMBL3893393

> <Smiles>
CCSC[C@@](O)([C@@H](Nc1cccc2nc(C)ccc12)c1ccc(OC)c(F)c1Cl)C(F)(F)F

$$$$
CHEMBL1917244
  SciTegic08162514323D

 66 71  0  0  1  0            999 V2000
   -5.5720    1.2580   -0.4180 S   0  0
   -4.1520    2.2700   -0.4900 C   0  0
   -6.2500    2.4920    0.4490 C   0  0
   -2.5980    2.1990   -1.1430 S   0  0
   -4.2890    3.5120    0.1660 N   0  0
   -5.5330    3.6330    0.7190 C   0  0
   -7.5820    2.3950    0.9300 C   0  0
   -2.5880    0.6430   -1.9410 C   0  0
   -6.0680    4.7170    1.4550 C   0  0
   -8.1560    3.4570    1.6720 C   0  0
   -2.7520   -0.4470   -0.9160 C   0  0
   -7.3970    4.6230    1.9360 C   0  0
   -3.7660   -1.1040   -0.8630 O   0  0
   -1.6130   -0.6970    0.0430 C   0  0  2  0  0  0
   -1.5760    0.4120    0.9280 O   0  0
   -0.2320   -0.8910   -0.6270 C   0  0  2  0  0  0
   -1.7680   -2.0040    0.8630 C   0  0
    0.5410   -1.5140    0.5490 C   0  0  1  0  0  0
    0.5350    0.3240   -1.1890 C   0  0
   -0.4280   -1.9240   -1.7540 C   0  0
   -0.3790   -2.6520    0.9750 C   0  0
    1.9840   -1.7380    0.0900 C   0  0  1  0  0  0
    1.7640    0.7870   -0.3630 C   0  0  1  0  0  0
    2.6950   -0.3590    0.1950 C   0  0  2  0  0  0
    2.7030   -2.8110    0.9060 C   0  0
    2.4400    1.7420   -1.1560 O   0  0
    4.1970   -0.4410   -0.2620 C   0  0  2  0  0  0
    4.1150   -3.0000    0.3590 C   0  0
    4.8790   -1.6910    0.3320 C   0  0
    4.9730    0.8280    0.1070 C   0  0
    4.2640   -0.5940   -1.7850 C   0  0
    6.1330   -1.6700    0.8320 C   0  0
    6.2210    0.8240    0.6130 C   0  0
    6.9060   -0.4300    0.9180 C   0  0
    8.0720   -0.4410    1.2400 O   0  0
   -8.1640    1.5080    0.7310 H   0  0
   -3.4040    0.5980   -2.6620 H   0  0
   -1.6460    0.5120   -2.4730 H   0  0
   -5.4790    5.6020    1.6520 H   0  0
   -9.1700    3.3790    2.0350 H   0  0
   -7.8280    5.4360    2.5000 H   0  0
   -1.1110    1.1290    0.4670 H   0  0
   -2.1910   -1.8240    1.8420 H   0  0
   -2.4360   -2.6970    0.3710 H   0  0
    0.5760   -0.8400    1.3950 H   0  0
    0.8870    0.0760   -2.1950 H   0  0
   -0.1540    1.1580   -1.3360 H   0  0
    0.5350   -2.2890   -2.1130 H   0  0
   -1.0200   -2.7700   -1.4040 H   0  0
   -0.9510   -1.4790   -2.6000 H   0  0
   -0.2870   -3.5000    0.3110 H   0  0
   -0.1640   -2.9940    1.9770 H   0  0
    1.9980   -2.0700   -0.9490 H   0  0
    1.3770    1.3420    0.4940 H   0  0
    2.7640   -0.1540    1.2660 H   0  0
    2.7340   -2.5270    1.9590 H   0  0
    2.1620   -3.7560    0.8520 H   0  0
    1.8560    2.5140   -1.2340 H   0  0
    4.6370   -3.7440    0.9650 H   0  0
    4.0700   -3.4040   -0.6520 H   0  0
    4.5430    1.8070   -0.0270 H   0  0
    5.2760   -0.8180   -2.1270 H   0  0
    3.9430    0.3240   -2.2790 H   0  0
    3.6110   -1.3990   -2.1230 H   0  0
    6.5900   -2.5820    1.1900 H   0  0
    6.7230    1.7620    0.8010 H   0  0
  1  2  1  0
  1  3  1  0
  2  4  1  0
  2  5  2  0
  3  6  1  0
  3  7  2  0
  4  8  1  0
  6  9  2  0
  7 10  1  0
  8 11  1  0
  9 12  1  0
 11 13  2  0
 11 14  1  0
 14 15  1  0
 14 16  1  0
 14 17  1  0
 16 18  1  0
 16 19  1  0
 16 20  1  0
 17 21  1  0
 18 22  1  0
 19 23  1  0
 24 22  1  0
 22 25  1  0
 23 26  1  0
 24 27  1  0
 25 28  1  0
 27 29  1  0
 27 30  1  0
 27 31  1  0
 29 32  2  0
 30 33  2  0
 32 34  1  0
 34 35  2  0
  5  6  1  0
 10 12  2  0
 18 21  1  0
 23 24  1  0
 28 29  1  0
 33 34  1  0
  7 36  1  0
  8 37  1  0
  8 38  1  0
  9 39  1  0
 10 40  1  0
 12 41  1  0
 15 42  1  0
 17 43  1  0
 17 44  1  0
 18 45  1  0
 19 46  1  0
 19 47  1  0
 20 48  1  0
 20 49  1  0
 20 50  1  0
 21 51  1  0
 21 52  1  0
 22 53  1  0
 23 54  1  0
 24 55  1  0
 25 56  1  0
 25 57  1  0
 26 58  1  0
 28 59  1  0
 28 60  1  0
 30 61  1  0
 31 62  1  0
 31 63  1  0
 31 64  1  0
 32 65  1  0
 33 66  1  0
M  END
> <Name>
CHEMBL1917244

> <IC50 nM>
35

> <Molecule_ChEMBL_ID>
CHEMBL1917244

> <Smiles>
C[C@]12C=CC(=O)C=C1CC[C@@H]1[C@@H]2[C@@H](O)C[C@@]2(C)[C@H]1CC[C@]2(O)C(=O)CSc1nc2ccccc2s1

$$$$
CHEMBL1940550
  SciTegic08162514323D

 66 71  0  0  1  0            999 V2000
   -2.6130    2.2890   -1.1640 S   0  0
   -4.1290    2.3090   -0.4220 C   0  0
   -2.5980    0.7290   -1.9570 C   0  0
   -5.2400    1.4730   -0.2770 O   0  0
   -4.2850    3.5310    0.2260 N   0  0
   -2.7640   -0.3590   -0.9300 C   0  0
   -6.0490    2.2380    0.4710 C   0  0
   -5.5060    3.4610    0.7810 C   0  0
   -3.7770   -1.0140   -0.8750 O   0  0
   -1.6230   -0.6090    0.0290 C   0  0  2  0  0  0
   -7.3360    1.8520    0.9080 C   0  0
   -6.2250    4.3950    1.5640 C   0  0
   -1.5860    0.5000    0.9120 O   0  0
   -0.2440   -0.8030   -0.6410 C   0  0  2  0  0  0
   -1.7790   -1.9160    0.8500 C   0  0
   -8.0760    2.7740    1.6930 C   0  0
   -7.5220    4.0410    2.0210 C   0  0
    0.5290   -1.4260    0.5350 C   0  0  1  0  0  0
    0.5250    0.4140   -1.2050 C   0  0
   -0.4380   -1.8360   -1.7680 C   0  0
   -0.3890   -2.5630    0.9610 C   0  0
    1.9750   -1.6500    0.0760 C   0  0  1  0  0  0
    1.7520    0.8770   -0.3770 C   0  0  1  0  0  0
    2.6860   -0.2710    0.1820 C   0  0  2  0  0  0
    2.6910   -2.7230    0.8930 C   0  0
    2.4280    1.8320   -1.1700 O   0  0
    4.1860   -0.3530   -0.2750 C   0  0  2  0  0  0
    4.1060   -2.9100    0.3460 C   0  0
    4.8690   -1.6020    0.3180 C   0  0
    4.9630    0.9180    0.0940 C   0  0
    4.2540   -0.5040   -1.8010 C   0  0
    6.1230   -1.5800    0.8180 C   0  0
    6.2110    0.9140    0.5980 C   0  0
    6.8970   -0.3420    0.9040 C   0  0
    8.0610   -0.3530    1.2260 O   0  0
   -3.4120    0.6820   -2.6820 H   0  0
   -1.6520    0.6000   -2.4850 H   0  0
   -7.7440    0.8870    0.6520 H   0  0
   -5.7990    5.3580    1.8120 H   0  0
   -1.1330    1.2210    0.4490 H   0  0
   -2.2030   -1.7340    1.8280 H   0  0
   -2.4470   -2.6090    0.3570 H   0  0
   -9.0630    2.5120    2.0430 H   0  0
   -8.0900    4.7380    2.6190 H   0  0
    0.5640   -0.7500    1.3810 H   0  0
    0.8770    0.1660   -2.2090 H   0  0
   -0.1640    1.2480   -1.3500 H   0  0
    0.5230   -2.2010   -2.1270 H   0  0
   -1.0310   -2.6820   -1.4180 H   0  0
   -0.9610   -1.3890   -2.6130 H   0  0
   -0.2970   -3.4100    0.2970 H   0  0
   -0.1740   -2.9040    1.9630 H   0  0
    1.9860   -1.9820   -0.9630 H   0  0
    1.3670    1.4320    0.4780 H   0  0
    2.7520   -0.0660    1.2520 H   0  0
    2.7250   -2.4390    1.9450 H   0  0
    2.1500   -3.6680    0.8380 H   0  0
    1.8460    2.6040   -1.2460 H   0  0
    4.6250   -3.6540    0.9510 H   0  0
    4.0610   -3.3140   -0.6660 H   0  0
    4.5330    1.8970   -0.0410 H   0  0
    5.2640   -0.7280   -2.1430 H   0  0
    3.9320    0.4120   -2.2930 H   0  0
    3.6020   -1.3110   -2.1370 H   0  0
    6.5780   -2.4940    1.1760 H   0  0
    6.7110    1.8520    0.7870 H   0  0
  1  2  1  0
  1  3  1  0
  2  4  1  0
  2  5  2  0
  3  6  1  0
  4  7  1  0
  5  8  1  0
  6  9  2  0
  6 10  1  0
  7 11  1  0
  8 12  1  0
 10 13  1  0
 10 14  1  0
 10 15  1  0
 11 16  2  0
 12 17  2  0
 14 18  1  0
 14 19  1  0
 14 20  1  0
 15 21  1  0
 18 22  1  0
 19 23  1  0
 24 22  1  0
 22 25  1  0
 23 26  1  0
 24 27  1  0
 25 28  1  0
 27 29  1  0
 27 30  1  0
 27 31  1  0
 29 32  2  0
 30 33  2  0
 32 34  1  0
 34 35  2  0
  7  8  2  0
 16 17  1  0
 18 21  1  0
 23 24  1  0
 28 29  1  0
 33 34  1  0
  3 36  1  0
  3 37  1  0
 11 38  1  0
 12 39  1  0
 13 40  1  0
 15 41  1  0
 15 42  1  0
 16 43  1  0
 17 44  1  0
 18 45  1  0
 19 46  1  0
 19 47  1  0
 20 48  1  0
 20 49  1  0
 20 50  1  0
 21 51  1  0
 21 52  1  0
 22 53  1  0
 23 54  1  0
 24 55  1  0
 25 56  1  0
 25 57  1  0
 26 58  1  0
 28 59  1  0
 28 60  1  0
 30 61  1  0
 31 62  1  0
 31 63  1  0
 31 64  1  0
 32 65  1  0
 33 66  1  0
M  END
> <Name>
CHEMBL1940550

> <IC50 nM>
13.5

> <Molecule_ChEMBL_ID>
CHEMBL1940550

> <Smiles>
C[C@]12C=CC(=O)C=C1CC[C@@H]1[C@@H]2[C@@H](O)C[C@@]2(C)[C@H]1CC[C@]2(O)C(=O)CSc1nc2ccccc2o1

$$$$
CHEMBL182726
  SciTegic08162514323D

 69 72  0  0  0  0            999 V2000
    3.3220    5.4550   -0.6390 S   0  0
    4.5880    5.1150   -0.0120 O   0  0
    3.1350    4.8220   -1.9320 O   0  0
    2.1390    4.9320    0.3380 N   0  0
    3.2420    7.2310   -0.8460 C   0  0
    2.0760    3.6070    0.6870 C   0  0
    1.1130    3.1370    1.6130 C   0  0
    2.9900    2.7070    0.1090 C   0  0
    1.0800    1.7620    1.9490 C   0  0
    0.1390    4.0880    2.2320 C   0  0
    2.9510    1.3460    0.4470 C   0  0
    0.1620    1.2700    2.8440 N   0  0
    2.0000    0.8730    1.3630 C   0  0
   -1.2500    1.1050    2.4650 C   0  0
    0.5840    0.8960    4.2010 C   0  0
   -1.4410   -0.0510    1.5550 C   0  0
    1.3730   -0.3630    4.2010 C   0  0
   -1.0450    0.0390    0.2090 C   0  0
   -2.0220   -1.2380    2.0370 C   0  0
    0.7150   -1.6070    4.2010 C   0  0
    2.7790   -0.3140    4.2010 C   0  0
   -1.2270   -1.0570   -0.6530 C   0  0
   -2.2030   -2.3320    1.1740 C   0  0
    1.4630   -2.7990    4.2010 C   0  0
    3.5250   -1.5060    4.2010 C   0  0
   -1.8070   -2.2460   -0.1740 C   0  0
    2.8670   -2.7460    4.2010 C   0  0
   -1.9770   -3.2730   -0.9810 O   0  0
   -2.3150   -3.0270   -2.2310 C   0  0
   -1.7990   -3.8180   -3.2720 C   0  0
   -3.1930   -1.9710   -2.5300 C   0  0
   -2.1560   -3.5610   -4.6080 C   0  0
   -3.5550   -1.7090   -3.8620 C   0  0
   -1.6700   -4.3050   -5.5800 O   0  0
   -3.0350   -2.5020   -4.8990 C   0  0
   -2.4220   -4.4040   -6.7820 C   0  0
   -3.8150   -4.8790   -6.4650 C   0  0
   -4.7810   -4.2320   -6.7910 O   0  0
   -3.8810   -6.0390   -5.8170 O   0  0
    1.4550    5.5740    0.6830 H   0  0
    3.2730    7.7930    0.0860 H   0  0
    2.3180    7.4940   -1.3640 H   0  0
    4.0760    7.5630   -1.4650 H   0  0
    3.7320    3.0470   -0.6000 H   0  0
    0.6680    4.9730    2.5860 H   0  0
   -0.6470    4.3240    1.5130 H   0  0
   -0.3320    3.6150    3.0960 H   0  0
    3.6560    0.6600    0.0000 H   0  0
    1.9900   -0.1800    1.6070 H   0  0
   -1.5980    2.0160    1.9760 H   0  0
   -1.8480    0.9630    3.3650 H   0  0
   -0.2990    0.7710    4.8280 H   0  0
    1.1840    1.7010    4.6230 H   0  0
   -0.6000    0.9470   -0.1680 H   0  0
   -2.3280   -1.3140    3.0700 H   0  0
   -0.3630   -1.6520    4.2010 H   0  0
    3.2910    0.6370    4.2010 H   0  0
   -0.9220   -0.9840   -1.6860 H   0  0
   -2.6490   -3.2420    1.5490 H   0  0
    0.9570   -3.7520    4.2010 H   0  0
    4.6040   -1.4670    4.2010 H   0  0
    3.4410   -3.6620    4.2010 H   0  0
   -1.1230   -4.6310   -3.0450 H   0  0
   -3.5940   -1.3590   -1.7350 H   0  0
   -4.2310   -0.8960   -4.0900 H   0  0
   -3.3150   -2.2990   -5.9220 H   0  0
   -1.9240   -5.1210   -7.4360 H   0  0
   -2.4630   -3.4160   -7.2410 H   0  0
   -3.0650   -6.5060   -5.5940 H   0  0
  1  2  2  0
  1  3  2  0
  1  4  1  0
  1  5  1  0
  4  6  1  0
  6  7  2  0
  6  8  1  0
  7  9  1  0
  7 10  1  0
  8 11  2  0
  9 12  1  0
  9 13  2  0
 12 14  1  0
 12 15  1  0
 14 16  1  0
 15 17  1  0
 16 18  2  0
 16 19  1  0
 17 20  2  0
 17 21  1  0
 18 22  1  0
 19 23  2  0
 20 24  1  0
 21 25  2  0
 22 26  2  0
 24 27  2  0
 26 28  1  0
 28 29  1  0
 29 30  2  0
 29 31  1  0
 30 32  1  0
 31 33  2  0
 32 34  1  0
 32 35  2  0
 34 36  1  0
 36 37  1  0
 37 38  2  0
 37 39  1  0
 11 13  1  0
 23 26  1  0
 25 27  1  0
 33 35  1  0
  4 40  1  0
  5 41  1  0
  5 42  1  0
  5 43  1  0
  8 44  1  0
 10 45  1  0
 10 46  1  0
 10 47  1  0
 11 48  1  0
 13 49  1  0
 14 50  1  0
 14 51  1  0
 15 52  1  0
 15 53  1  0
 18 54  1  0
 19 55  1  0
 20 56  1  0
 21 57  1  0
 22 58  1  0
 23 59  1  0
 24 60  1  0
 25 61  1  0
 27 62  1  0
 30 63  1  0
 31 64  1  0
 33 65  1  0
 35 66  1  0
 36 67  1  0
 36 68  1  0
 39 69  1  0
M  END
> <Name>
CHEMBL182726

> <IC50 nM>
63

> <Molecule_ChEMBL_ID>
CHEMBL182726

> <Smiles>
Cc1c(NS(C)(=O)=O)cccc1N(Cc1ccccc1)Cc1ccc(Oc2cccc(OCC(=O)O)c2)cc1

$$$$
CHEMBL308743
  SciTegic08162514323D

 51 53  0  0  0  0            999 V2000
    6.4340   -0.5040    1.8540 Cl  0  0
    4.7380   -0.7400    1.7480 C   0  0
    3.8830    0.3630    1.5700 C   0  0
    4.1990   -2.0370    1.8360 C   0  0
    2.4920    0.1700    1.4800 C   0  0
    2.8090   -2.2290    1.7460 C   0  0
    1.9550   -1.1270    1.5680 C   0  0
    0.4860   -1.3300    1.4730 C   0  0
   -0.0080   -1.0820    0.1090 N   0  0
   -0.6760    0.0760   -0.1990 C   0  0
    0.2270   -2.0960   -0.9280 C   0  0
   -1.9880    0.3160    0.2750 C   0  0
   -0.0350    1.0370   -1.0040 C   0  0
    1.0840   -1.5700   -2.0240 C   0  0
   -2.6450    1.5230   -0.0640 C   0  0
   -2.6760   -0.6990    1.1330 C   0  0
   -0.6910    2.2310   -1.3400 C   0  0
    2.4790   -1.5160   -1.8590 C   0  0
    0.5000   -1.1290   -3.2250 C   0  0
   -3.9160    1.7910    0.3770 N   0  0
   -1.9920    2.4750   -0.8710 C   0  0
    3.2890   -1.0180   -2.8950 C   0  0
    1.3110   -0.6310   -4.2600 C   0  0
   -4.2300    1.8400    1.9650 S   0  0
    2.7050   -0.5760   -4.0940 C   0  0
   -5.0040    0.6540    2.2950 O   0  0
   -2.9550    1.9020    2.6600 O   0  0
   -5.1880    3.2890    2.3850 C   0  0
    4.2810    1.3650    1.5020 H   0  0
    4.8440   -2.8930    1.9730 H   0  0
    1.8420    1.0220    1.3420 H   0  0
    2.4020   -3.2270    1.8160 H   0  0
    0.2420   -2.3540    1.7600 H   0  0
   -0.0190   -0.6580    2.1660 H   0  0
   -0.7320   -2.4140   -1.3400 H   0  0
    0.7030   -2.9670   -0.4790 H   0  0
    0.9670    0.8710   -1.3770 H   0  0
   -3.7380   -0.7250    0.8870 H   0  0
   -2.1910   -1.6680    1.0080 H   0  0
   -2.5840   -0.4140    2.1800 H   0  0
   -0.1950    2.9630   -1.9570 H   0  0
    2.9340   -1.8540   -0.9400 H   0  0
   -0.5720   -1.1680   -3.3580 H   0  0
   -4.6500    1.9570   -0.2830 H   0  0
   -2.4790    3.4000   -1.1430 H   0  0
    4.3610   -0.9770   -2.7680 H   0  0
    0.8630   -0.2930   -5.1820 H   0  0
    3.3280   -0.1950   -4.8910 H   0  0
   -5.4300    3.3750    3.4450 H   0  0
   -6.1250    3.2790    1.8300 H   0  0
   -4.6390    4.1860    2.0960 H   0  0
  1  2  1  0
  2  3  2  0
  2  4  1  0
  3  5  1  0
  4  6  2  0
  5  7  2  0
  7  8  1  0
  8  9  1  0
  9 10  1  0
  9 11  1  0
 10 12  2  0
 10 13  1  0
 11 14  1  0
 12 15  1  0
 12 16  1  0
 13 17  2  0
 14 18  2  0
 14 19  1  0
 15 20  1  0
 15 21  2  0
 18 22  1  0
 19 23  2  0
 20 24  1  0
 22 25  2  0
 24 26  2  0
 24 27  2  0
 24 28  1  0
  6  7  1  0
 17 21  1  0
 23 25  1  0
  3 29  1  0
  4 30  1  0
  5 31  1  0
  6 32  1  0
  8 33  1  0
  8 34  1  0
 11 35  1  0
 11 36  1  0
 13 37  1  0
 16 38  1  0
 16 39  1  0
 16 40  1  0
 17 41  1  0
 18 42  1  0
 19 43  1  0
 20 44  1  0
 21 45  1  0
 22 46  1  0
 23 47  1  0
 25 48  1  0
 28 49  1  0
 28 50  1  0
 28 51  1  0
M  END
> <Name>
CHEMBL308743

> <IC50 nM>
17

> <Molecule_ChEMBL_ID>
CHEMBL308743

> <Smiles>
Cc1c(NS(C)(=O)=O)cccc1N(Cc1ccccc1)Cc1ccc(Cl)cc1

$$$$
CHEMBL1095541
  SciTegic08162514323D

 42 45  0  0  1  0            999 V2000
    5.0140    5.4830   -0.7970 F   0  0
    4.5250    4.2460   -0.7030 C   0  0
    3.4770    3.9710    0.1940 C   0  0
    5.0570    3.2170   -1.4980 C   0  0
    2.9610    2.6680    0.2950 C   0  0
    4.5430    1.9120   -1.3980 C   0  0
    3.4920    1.6350   -0.5000 C   0  0
    2.9960    0.3750   -0.4040 N   0  0
    3.7440   -0.7810   -0.3790 N   0  0
    1.6880    0.0200   -0.3120 C   0  0
    3.0140   -1.9470   -0.2750 C   0  0
    1.7620   -1.3570   -0.2400 C   0  0
    0.4670    0.7310   -0.2870 C   0  0
    0.5640   -2.1130   -0.1310 C   0  0
   -0.7320   -0.0170   -0.1800 C   0  0
   -0.6860   -1.4350   -0.1010 C   0  0
   -1.9340   -2.2070    0.0100 C   0  0  1  0  0  0
   -1.7190   -3.3320    0.8320 O   0  0
   -2.9920   -1.3510    0.6100 C   0  0
   -2.3670   -2.7750   -1.3420 C   0  0
   -2.9510   -1.0390    1.9810 C   0  0
   -4.0330   -0.8530   -0.1950 C   0  0
   -3.6310   -3.2930   -1.2340 F   0  0
   -1.4980   -3.7660   -1.7210 F   0  0
   -2.3610   -1.7750   -2.2810 F   0  0
   -3.9530   -0.2280    2.5450 C   0  0
   -5.0330   -0.0450    0.3710 C   0  0
   -4.9940    0.2680    1.7420 C   0  0
   -5.9410    1.0330    2.2780 F   0  0
    3.0660    4.7600    0.8070 H   0  0
    5.8630    3.4240   -2.1870 H   0  0
    2.1560    2.4770    0.9900 H   0  0
    4.9650    1.1350   -2.0170 H   0  0
    3.3650   -2.9710   -0.2360 H   0  0
    0.4430    1.8090   -0.3460 H   0  0
    0.5960   -3.1930   -0.0720 H   0  0
   -1.6820    0.4980   -0.1580 H   0  0
   -1.2770   -3.0190    1.6370 H   0  0
   -2.1540   -1.4160    2.6020 H   0  0
   -4.0680   -1.0900   -1.2480 H   0  0
   -3.9180    0.0080    3.6000 H   0  0
   -5.8320    0.3360   -0.2500 H   0  0
  1  2  1  0
  2  3  2  0
  2  4  1  0
  3  5  1  0
  4  6  2  0
  5  7  2  0
  7  8  1  0
  8  9  1  0
  8 10  1  0
  9 11  2  0
 10 12  1  0
 10 13  2  0
 12 14  2  0
 13 15  1  0
 14 16  1  0
 16 17  1  0
 17 18  1  0
 17 19  1  0
 17 20  1  0
 19 21  2  0
 19 22  1  0
 20 23  1  0
 20 24  1  0
 20 25  1  0
 21 26  1  0
 22 27  2  0
 26 28  2  0
 28 29  1  0
  6  7  1  0
 11 12  1  0
 15 16  2  0
 27 28  1  0
  3 30  1  0
  4 31  1  0
  5 32  1  0
  6 33  1  0
 11 34  1  0
 13 35  1  0
 14 36  1  0
 15 37  1  0
 18 38  1  0
 21 39  1  0
 22 40  1  0
 26 41  1  0
 27 42  1  0
M  END
> <Name>
CHEMBL1095541

> <IC50 nM>
86

> <Molecule_ChEMBL_ID>
CHEMBL1095541

> <Smiles>
OC(c1ccc(F)cc1)(c1ccc2c(cnn2-c2ccc(F)cc2)c1)C(F)(F)F

$$$$
CHEMBL182016
  SciTegic08162514323D

 85 89  0  0  0  0            999 V2000
   -6.4470    3.7310   -2.5270 S   0  0
   -5.8130    3.1640   -3.7030 O   0  0
   -6.3380    2.8830   -1.3520 O   0  0
   -5.6950    5.1270   -2.1910 N   0  0
   -8.1780    4.0080   -2.8810 C   0  0
   -5.1580    5.3340   -0.9450 C   0  0
   -4.1370    4.4960   -0.4360 C   0  0
   -5.6390    6.4060   -0.1700 C   0  0
   -3.6090    4.7420    0.8540 C   0  0
   -3.6210    3.3560   -1.2540 C   0  0
   -5.1090    6.6470    1.1070 C   0  0
   -2.6190    3.9510    1.3830 N   0  0
   -4.1000    5.8180    1.6190 C   0  0
   -1.2010    4.2930    1.2050 C   0  0
   -2.9730    2.7420    2.1410 C   0  0
   -0.3180    3.1430    1.5220 C   0  0
   -4.4240    2.6970    2.4530 C   0  0
    0.2050    2.9900    2.8180 C   0  0
   -0.0020    2.2010    0.5250 C   0  0
   -4.9240    3.3770    3.5800 C   0  0
   -5.3010    1.9730    1.6270 C   0  0
    1.0390    1.9020    3.1190 C   0  0
    0.8340    1.1130    0.8280 C   0  0
   -6.2970    3.3340    3.8770 C   0  0
   -6.6740    1.9300    1.9240 C   0  0
    1.3570    0.9590    2.1230 C   0  0
   -7.1720    2.6110    3.0490 C   0  0
    2.1410   -0.0620    2.4060 O   0  0
    2.9920   -0.4630    1.4820 C   0  0
    3.2600   -1.8320    1.3140 C   0  0
    3.6350    0.4790    0.6580 C   0  0
    4.1660   -2.2660    0.3300 C   0  0
    4.5410    0.0510   -0.3260 C   0  0
    4.4160   -3.5490    0.1760 O   0  0
    4.8050   -1.3180   -0.4900 C   0  0
    5.3380   -3.9340   -0.8320 C   0  0
    5.4810   -5.4570   -0.8400 C   0  0
    6.4570   -5.9510   -1.9060 C   0  0
    6.7250   -7.3750   -1.7320 N   0  0
    7.9900   -7.7740   -2.3570 C   0  0
    5.6110   -8.2010   -2.2110 C   0  0
    8.2540   -9.2770   -2.1560 C   0  0
    5.9140   -9.7010   -2.0160 C   0  0
    7.1490  -10.0270   -2.6390 O   0  0
   -5.6210    5.8360   -2.8930 H   0  0
   -8.7380    3.1020   -3.1130 H   0  0
   -8.2720    4.6860   -3.7290 H   0  0
   -8.6540    4.4810   -2.0220 H   0  0
   -6.4160    7.0570   -0.5430 H   0  0
   -2.5490    3.2480   -1.0940 H   0  0
   -4.1780    2.4490   -1.0080 H   0  0
   -3.7810    3.5660   -2.3130 H   0  0
   -5.4830    7.4690    1.6990 H   0  0
   -3.7070    6.0220    2.6060 H   0  0
   -0.9510    5.1330    1.8540 H   0  0
   -1.0350    4.6060    0.1740 H   0  0
   -2.3990    2.7190    3.0660 H   0  0
   -2.6990    1.8610    1.5570 H   0  0
   -0.0350    3.7110    3.5900 H   0  0
   -0.3980    2.3110   -0.4730 H   0  0
   -4.2560    3.9360    4.2190 H   0  0
   -4.9260    1.4470    0.7600 H   0  0
    1.4370    1.7910    4.1150 H   0  0
    1.0740    0.3930    0.0590 H   0  0
   -6.6780    3.8580    4.7400 H   0  0
   -7.3480    1.3750    1.2870 H   0  0
   -8.2270    2.5780    3.2770 H   0  0
    2.7680   -2.5590    1.9450 H   0  0
    3.4320    1.5310    0.7810 H   0  0
    5.0330    0.7750   -0.9590 H   0  0
    5.5020   -1.6450   -1.2480 H   0  0
    6.2950   -3.4590   -0.6170 H   0  0
    4.9630   -3.5760   -1.7910 H   0  0
    4.5080   -5.9340   -0.9570 H   0  0
    5.7680   -5.8220    0.1460 H   0  0
    7.3950   -5.3980   -1.8570 H   0  0
    6.0590   -5.7770   -2.9060 H   0  0
    8.8090   -7.1930   -1.9280 H   0  0
    7.9610   -7.5390   -3.4240 H   0  0
    5.4300   -7.9920   -3.2680 H   0  0
    4.7010   -7.9360   -1.6740 H   0  0
    8.4060   -9.5140   -1.1020 H   0  0
    9.1450   -9.5940   -2.6990 H   0  0
    5.9770   -9.9550   -0.9570 H   0  0
    5.1330  -10.3170   -2.4590 H   0  0
  1  2  2  0
  1  3  2  0
  1  4  1  0
  1  5  1  0
  4  6  1  0
  6  7  2  0
  6  8  1  0
  7  9  1  0
  7 10  1  0
  8 11  2  0
  9 12  1  0
  9 13  2  0
 12 14  1  0
 12 15  1  0
 14 16  1  0
 15 17  1  0
 16 18  2  0
 16 19  1  0
 17 20  2  0
 17 21  1  0
 18 22  1  0
 19 23  2  0
 20 24  1  0
 21 25  2  0
 22 26  2  0
 24 27  2  0
 26 28  1  0
 28 29  1  0
 29 30  2  0
 29 31  1  0
 30 32  1  0
 31 33  2  0
 32 34  1  0
 32 35  2  0
 34 36  1  0
 36 37  1  0
 37 38  1  0
 38 39  1  0
 39 40  1  0
 39 41  1  0
 40 42  1  0
 41 43  1  0
 42 44  1  0
 11 13  1  0
 23 26  1  0
 25 27  1  0
 33 35  1  0
 43 44  1  0
  4 45  1  0
  5 46  1  0
  5 47  1  0
  5 48  1  0
  8 49  1  0
 10 50  1  0
 10 51  1  0
 10 52  1  0
 11 53  1  0
 13 54  1  0
 14 55  1  0
 14 56  1  0
 15 57  1  0
 15 58  1  0
 18 59  1  0
 19 60  1  0
 20 61  1  0
 21 62  1  0
 22 63  1  0
 23 64  1  0
 24 65  1  0
 25 66  1  0
 27 67  1  0
 30 68  1  0
 31 69  1  0
 33 70  1  0
 35 71  1  0
 36 72  1  0
 36 73  1  0
 37 74  1  0
 37 75  1  0
 38 76  1  0
 38 77  1  0
 40 78  1  0
 40 79  1  0
 41 80  1  0
 41 81  1  0
 42 82  1  0
 42 83  1  0
 43 84  1  0
 43 85  1  0
M  END
> <Name>
CHEMBL182016

> <IC50 nM>
19

> <Molecule_ChEMBL_ID>
CHEMBL182016

> <Smiles>
Cc1c(NS(C)(=O)=O)cccc1N(Cc1ccccc1)Cc1ccc(Oc2cccc(OCCCN3CCOCC3)c2)cc1

$$$$
CHEMBL3138348
  SciTegic08162514323D

148155  0  0  1  0            999 V2000
  -13.3300   -2.3890    1.2540 S   0  0
  -13.9590   -2.5020    2.5590 O   0  0
  -14.2210   -1.8690    0.2300 O   0  0
  -12.0940   -1.3520    1.3960 N   0  0
  -12.7540   -4.0060    0.7500 C   0  0
  -11.0220   -1.6660    2.1930 C   0  0
   -9.8260   -0.9080    2.1500 C   0  0
  -11.1270   -2.7640    3.0680 C   0  0
   -8.7440   -1.2640    2.9900 C   0  0
   -9.7090    0.2600    1.2250 C   0  0
  -10.0490   -3.1110    3.8960 C   0  0
   -7.5680   -0.5550    2.9770 N   0  0
   -8.8610   -2.3650    3.8590 C   0  0
   -7.5590    0.8570    3.3830 C   0  0
   -6.3090   -1.1860    2.5600 C   0  0
   -6.9940    1.0310    4.7460 C   0  0
   -6.1170   -1.1110    1.0880 C   0  0
   -7.7310    0.6190    5.8710 C   0  0
   -5.7230    1.6090    4.9120 C   0  0
   -6.4490   -2.2110    0.2790 C   0  0
   -5.6060    0.0610    0.5040 C   0  0
   -7.1950    0.7850    7.1580 C   0  0
   -5.1900    1.7730    6.2030 C   0  0
   -6.2700   -2.1410   -1.1130 C   0  0
   -5.4260    0.1310   -0.8890 C   0  0
   -5.9240    1.3610    7.3300 C   0  0
   -5.7580   -0.9710   -1.6990 C   0  0
   -5.4240    1.5180    8.5390 O   0  0
   -5.5680   -0.8950   -3.1720 C   0  0
   -6.2500    1.8360    9.5140 C   0  0
   -4.3890   -1.7540   -3.6310 C   0  0
   -7.3280    2.7050    9.2720 C   0  0
   -6.0570    1.3090   10.8030 C   0  0
   -3.0490   -1.2580   -3.0840 C   0  0
   -8.2090    3.0450   10.3130 C   0  0
   -6.9380    1.6480   11.8460 C   0  0
   -1.8930   -2.1000   -3.5530 C   0  0
   -8.0140    2.5160   11.6000 C   0  0
   -2.0630   -3.0290   -4.3050 O   0  0
   -0.6370   -1.7930   -3.1080 N   0  0
    0.5040   -2.6040   -3.5550 C   0  0
    1.7710   -2.2360   -2.7810 C   0  0
    2.1450   -0.9260   -3.1430 O   0  0
    3.4040   -0.5410   -2.6230 C   0  0  1  0  0  0
    4.5250   -1.1410   -3.4940 C   0  0
    3.4730    0.9980   -2.5390 C   0  0
    4.8520   -0.2680   -4.7270 C   0  0  1  0  0  0
    4.8770    1.5120   -2.8830 C   0  0
    5.2720    1.1990   -4.3500 C   0  0  1  0  0  0
    5.8810   -0.9590   -5.6450 C   0  0
    6.7950    1.4240   -4.5940 C   0  0  2  0  0  0
    4.5040    2.1740   -5.2600 C   0  0
    7.3050   -1.0120   -5.0470 C   0  0  1  0  0  0
    7.6250    0.2030   -4.1350 C   0  0  1  0  0  0
    7.3610    2.7930   -4.1290 C   0  0
    7.4470   -2.2110   -4.3090 O   0  0
    9.1150    0.6110   -4.1410 C   0  0  1  0  0  0
    8.3070    2.7460   -2.9100 C   0  0  2  0  0  0
    9.3970    1.6370   -3.0180 C   0  0  1  0  0  0
   10.1190   -0.5020   -3.8260 C   0  0
    7.5350    2.6430   -1.7310 O   0  0
    9.5740    0.7030   -1.7930 C   0  0  1  0  0  0
   10.7520    2.2750   -3.3580 C   0  0
   10.1350   -0.6230   -2.3110 C   0  0
   10.4320    1.2970   -0.6760 C   0  0  2  0  0  0
   10.5880    0.2720    0.4470 C   0  0
    9.8070    2.6070   -0.1950 C   0  0
   11.6190    0.6950    1.4920 C   0  0
   12.9810    0.9300    0.8960 C   0  0
   13.4010    2.0510    0.7230 O   0  0
   13.6580   -0.1720    0.5840 O   0  0
  -12.1120   -0.4820    0.9020 H   0  0
  -12.3400   -4.6070    1.5590 H   0  0
  -11.9810   -3.8950   -0.0120 H   0  0
  -13.5780   -4.5650    0.3090 H   0  0
  -12.0310   -3.3540    3.1150 H   0  0
   -8.6940    0.6370    1.1030 H   0  0
  -10.3260    1.0800    1.5940 H   0  0
  -10.0800   -0.0200    0.2380 H   0  0
  -10.1350   -3.9550    4.5660 H   0  0
   -8.0450   -2.6520    4.5080 H   0  0
   -8.5780    1.2440    3.3590 H   0  0
   -6.9690    1.4320    2.6680 H   0  0
   -5.4770   -0.6870    3.0610 H   0  0
   -6.3090   -2.2300    2.8750 H   0  0
   -8.7070    0.1760    5.7480 H   0  0
   -5.1520    1.9300    4.0530 H   0  0
   -6.8440   -3.1150    0.7230 H   0  0
   -5.3480    0.9100    1.1190 H   0  0
   -7.7640    0.4670    8.0200 H   0  0
   -4.2130    2.2190    6.3260 H   0  0
   -6.5270   -2.9900   -1.7310 H   0  0
   -5.0310    1.0330   -1.3320 H   0  0
   -6.4860   -1.2010   -3.6720 H   0  0
   -5.4260    0.1450   -3.4670 H   0  0
   -4.5490   -2.7990   -3.3690 H   0  0
   -4.3590   -1.8180   -4.7190 H   0  0
   -7.4810    3.1130    8.2830 H   0  0
   -5.2310    0.6410   10.9960 H   0  0
   -3.1310   -1.3110   -1.9980 H   0  0
   -2.8850   -0.2170   -3.3560 H   0  0
   -9.0370    3.7130   10.1210 H   0  0
   -6.7870    1.2400   12.8340 H   0  0
   -8.6920    2.7770   12.3990 H   0  0
   -0.4980   -1.0230   -2.4850 H   0  0
    0.2680   -3.6580   -3.4260 H   0  0
    0.6500   -2.4570   -4.6250 H   0  0
    1.5880   -2.2540   -1.7070 H   0  0
    2.5920   -2.9060   -3.0450 H   0  0
    3.4750   -0.9690   -1.6210 H   0  0
    5.4160   -1.2360   -2.8790 H   0  0
    4.2770   -2.1600   -3.8010 H   0  0
    3.1880    1.3260   -1.5390 H   0  0
    2.7620    1.4710   -3.2210 H   0  0
    3.9200   -0.2230   -5.2930 H   0  0
    4.9300    2.5820   -2.6880 H   0  0
    5.5780    1.0410   -2.1950 H   0  0
    5.9220   -0.3950   -6.5780 H   0  0
    5.5310   -1.9510   -5.9360 H   0  0
    6.9140    1.4590   -5.6800 H   0  0
    3.4300    1.9880   -5.2420 H   0  0
    4.8400    2.0840   -6.2930 H   0  0
    4.6680    3.2050   -4.9450 H   0  0
    8.0200   -1.0640   -5.8690 H   0  0
    7.3300   -0.0290   -3.1110 H   0  0
    7.9450    3.2030   -4.9550 H   0  0
    6.5630    3.5200   -3.9770 H   0  0
    7.5570   -1.9630   -3.3770 H   0  0
    9.3460    1.0220   -5.1150 H   0  0
    8.7870    3.7210   -2.8220 H   0  0
    9.9010   -1.4380   -4.3150 H   0  0
   11.1020   -0.2110   -4.1700 H   0  0
    6.9510    3.4160   -1.7030 H   0  0
    8.6090    0.4670   -1.3670 H   0  0
   11.5700    1.5610   -3.2700 H   0  0
   10.9630    3.1070   -2.6880 H   0  0
   10.7520    2.6580   -4.3770 H   0  0
    9.5060   -1.4410   -1.9900 H   0  0
   11.1330   -0.8300   -1.9490 H   0  0
   11.3870    1.4820   -1.1660 H   0  0
   10.8340   -0.7090    0.0410 H   0  0
    9.6270    0.0630    0.9160 H   0  0
   10.4160    3.0630    0.5840 H   0  0
    9.7030    3.3110   -1.0220 H   0  0
    8.8130    2.4320    0.2170 H   0  0
   11.6660   -0.1190    2.2150 H   0  0
   11.2870    1.5900    2.0190 H   0  0
   13.2580   -1.0350    0.7460 H   0  0
  1  2  2  0
  1  3  2  0
  1  4  1  0
  1  5  1  0
  4  6  1  0
  6  7  2  0
  6  8  1  0
  7  9  1  0
  7 10  1  0
  8 11  2  0
  9 12  1  0
  9 13  2  0
 12 14  1  0
 12 15  1  0
 14 16  1  0
 15 17  1  0
 16 18  2  0
 16 19  1  0
 17 20  2  0
 17 21  1  0
 18 22  1  0
 19 23  2  0
 20 24  1  0
 21 25  2  0
 22 26  2  0
 24 27  2  0
 26 28  1  0
 27 29  1  0
 28 30  1  0
 29 31  1  0
 30 32  2  0
 30 33  1  0
 31 34  1  0
 32 35  1  0
 33 36  2  0
 34 37  1  0
 35 38  2  0
 37 39  2  0
 37 40  1  0
 40 41  1  0
 41 42  1  0
 42 43  1  0
 44 43  1  0
 44 45  1  0
 44 46  1  0
 47 45  1  0
 46 48  1  0
 47 49  1  0
 47 50  1  0
 49 51  1  0
 49 52  1  0
 50 53  1  0
 54 51  1  0
 51 55  1  0
 53 56  1  0
 54 57  1  0
 55 58  1  0
 57 59  1  0
 57 60  1  0
 58 61  1  0
 59 62  1  0
 59 63  1  0
 60 64  1  0
 62 65  1  0
 65 66  1  0
 65 67  1  0
 66 68  1  0
 68 69  1  0
 69 70  2  0
 69 71  1  0
 11 13  1  0
 23 26  1  0
 25 27  1  0
 36 38  1  0
 48 49  1  0
 53 54  1  0
 58 59  1  0
 62 64  1  0
  4 72  1  0
  5 73  1  0
  5 74  1  0
  5 75  1  0
  8 76  1  0
 10 77  1  0
 10 78  1  0
 10 79  1  0
 11 80  1  0
 13 81  1  0
 14 82  1  0
 14 83  1  0
 15 84  1  0
 15 85  1  0
 18 86  1  0
 19 87  1  0
 20 88  1  0
 21 89  1  0
 22 90  1  0
 23 91  1  0
 24 92  1  0
 25 93  1  0
 29 94  1  0
 29 95  1  0
 31 96  1  0
 31 97  1  0
 32 98  1  0
 33 99  1  0
 34100  1  0
 34101  1  0
 35102  1  0
 36103  1  0
 38104  1  0
 40105  1  0
 41106  1  0
 41107  1  0
 42108  1  0
 42109  1  0
 44110  1  0
 45111  1  0
 45112  1  0
 46113  1  0
 46114  1  0
 47115  1  0
 48116  1  0
 48117  1  0
 50118  1  0
 50119  1  0
 51120  1  0
 52121  1  0
 52122  1  0
 52123  1  0
 53124  1  0
 54125  1  0
 55126  1  0
 55127  1  0
 56128  1  0
 57129  1  0
 58130  1  0
 60131  1  0
 60132  1  0
 61133  1  0
 62134  1  0
 63135  1  0
 63136  1  0
 63137  1  0
 64138  1  0
 64139  1  0
 65140  1  0
 66141  1  0
 66142  1  0
 67143  1  0
 67144  1  0
 67145  1  0
 68146  1  0
 68147  1  0
 71148  1  0
M  END
> <Name>
CHEMBL3138348

> <IC50 nM>
260

> <Molecule_ChEMBL_ID>
CHEMBL3138348

> <Smiles>
Cc1c(NS(C)(=O)=O)cccc1N(Cc1ccc(CCCC(=O)NCCO[C@@H]2CC[C@]3(C)[C@H](C2)C[C@H](O)[C@@H]2[C@@H]3C[C@@H](O)[C@]3(C)[C@H]2CC[C@H]3[C@@H](C)CCC(=O)O)cc1)Cc1ccc(Oc2ccccc2)cc1

$$$$
CHEMBL268220
  SciTegic08162514323D

148155  0  0  1  0            999 V2000
  -12.5310  -10.7520   -0.4960 S   0  0
  -12.1470  -10.3130   -1.8260 O   0  0
  -11.9120  -12.0060   -0.1050 O   0  0
  -12.0410   -9.6190    0.5530 N   0  0
  -14.3090  -10.9450   -0.4430 C   0  0
  -10.7010   -9.4100    0.7600 C   0  0
  -10.2400   -8.5430    1.7790 C   0  0
   -9.7740  -10.0780   -0.0640 C   0  0
   -8.8500   -8.3540    1.9610 C   0  0
  -11.2190   -7.8300    2.6600 C   0  0
   -8.3970   -9.8850    0.1210 C   0  0
   -8.3650   -7.5200    2.9400 N   0  0
   -7.9360   -9.0270    1.1310 C   0  0
   -8.5630   -6.0650    2.8590 C   0  0
   -7.6390   -8.0780    4.0880 C   0  0
   -8.4960   -5.5800    1.4570 C   0  0
   -8.4690   -9.0570    4.8380 C   0  0
   -9.6600   -5.1230    0.8150 C   0  0
   -7.2700   -5.5760    0.7700 C   0  0
   -8.3580  -10.4320    4.5650 C   0  0
   -9.3670   -8.6080    5.8220 C   0  0
   -9.5960   -4.6640   -0.5140 C   0  0
   -7.2070   -5.1170   -0.5570 C   0  0
   -9.1430  -11.3560    5.2760 C   0  0
  -10.1530   -9.5310    6.5330 C   0  0
   -8.3690   -4.6600   -1.2030 C   0  0
  -10.0410  -10.9060    6.2600 C   0  0
   -8.3110   -4.2310   -2.4470 O   0  0
   -7.2420   -3.5550   -2.8160 C   0  0
   -6.7130   -3.7210   -4.1090 C   0  0
   -6.6250   -2.6620   -1.9220 C   0  0
   -5.5740   -3.0000   -4.5060 C   0  0
   -5.4840   -1.9390   -2.3160 C   0  0
   -4.9590   -2.1090   -3.6090 C   0  0
   -3.7540   -1.3460   -4.0270 C   0  0
   -3.2440   -0.4410   -2.9060 C   0  0
   -2.0020    0.3550   -3.3090 C   0  0
   -1.5120    1.2520   -2.2050 C   0  0
   -2.0660    1.2790   -1.1330 O   0  0
   -0.4220    2.0430   -2.4370 N   0  0
    0.0700    2.9260   -1.3690 C   0  0
    1.2930    3.7190   -1.8340 C   0  0
    1.7150    4.5410   -0.7710 O   0  0
    2.8570    5.3150   -1.0840 C   0  0  2  0  0  0
    4.1230    4.4300   -1.0080 C   0  0
    2.9160    6.5200   -0.1190 C   0  0
    4.8360    4.5840    0.3480 C   0  0  2  0  0  0
    4.3440    7.0680   -0.0170 C   0  0
    5.3670    6.0370    0.5490 C   0  0  2  0  0  0
    5.8950    3.4960    0.6250 C   0  0
    6.7400    6.2480   -0.1600 C   0  0  2  0  0  0
    5.5250    6.2700    2.0610 C   0  0
    7.2400    3.7290   -0.0720 C   0  0  2  0  0  0
    7.7740    5.1500    0.2070 C   0  0  1  0  0  0
    7.3160    7.6700    0.0780 C   0  0
    7.0960    3.4980   -1.4610 O   0  0
    9.0880    5.4360   -0.5470 C   0  0  1  0  0  0
    8.6800    7.9200   -0.6010 C   0  0  1  0  0  0
    9.6680    6.8110   -0.1870 C   0  0  2  0  0  0
   10.2560    4.4900   -0.2690 C   0  0
    8.4960    7.9630   -2.0060 O   0  0
   10.9980    6.7250   -0.9530 C   0  0  2  0  0  0
    9.9750    6.9080    1.3150 C   0  0
   11.4940    5.3010   -0.6620 C   0  0
   12.0160    7.7930   -0.5620 C   0  0  1  0  0  0
   13.3320    7.5350   -1.2970 C   0  0
   11.4380    9.1780   -0.8550 C   0  0
   14.5080    8.2990   -0.6840 C   0  0
   15.8090    8.0000   -1.3790 C   0  0
   15.8520    7.2500   -2.3260 O   0  0
   16.8750    8.6170   -0.8750 O   0  0
  -12.7150   -9.0720    1.0510 H   0  0
  -14.6990  -11.6970   -1.1310 H   0  0
  -14.7850   -9.9960   -0.6840 H   0  0
  -14.6150  -11.2270    0.5650 H   0  0
  -10.1080  -10.7440   -0.8480 H   0  0
  -10.7870   -7.4300    3.5780 H   0  0
  -12.0220   -8.5140    2.9380 H   0  0
  -11.6640   -7.0000    2.1110 H   0  0
   -7.6920  -10.4010   -0.5140 H   0  0
   -6.8690   -8.8950    1.2540 H   0  0
   -9.5330   -5.8110    3.2870 H   0  0
   -7.7970   -5.5660    3.4530 H   0  0
   -7.3420   -7.2680    4.7520 H   0  0
   -6.7310   -8.5680    3.7330 H   0  0
  -10.6060   -5.1230    1.3360 H   0  0
   -6.3710   -5.9260    1.2580 H   0  0
   -7.6700  -10.7830    3.8110 H   0  0
   -9.4570   -7.5530    6.0390 H   0  0
  -10.4920   -4.3150   -1.0040 H   0  0
   -6.2620   -5.1170   -1.0800 H   0  0
   -9.0570  -12.4120    5.0650 H   0  0
  -10.8420   -9.1860    7.2890 H   0  0
  -10.6450  -11.6150    6.8050 H   0  0
   -7.1820   -4.4040   -4.8010 H   0  0
   -7.0260   -2.5290   -0.9300 H   0  0
   -5.1740   -3.1350   -5.5020 H   0  0
   -5.0180   -1.2560   -1.6230 H   0  0
   -2.9770   -2.0410   -4.3460 H   0  0
   -3.9840   -0.7640   -4.9200 H   0  0
   -4.0330    0.2270   -2.5610 H   0  0
   -3.0550   -1.0180   -2.0020 H   0  0
   -2.2950    0.9530   -4.1720 H   0  0
   -1.2010   -0.3140   -3.6250 H   0  0
    0.0370    2.0200   -3.3260 H   0  0
   -0.7310    3.5980   -1.0620 H   0  0
    0.3110    2.3260   -0.4920 H   0  0
    2.1130    3.0470   -2.0900 H   0  0
    1.0370    4.3590   -2.6800 H   0  0
    2.7290    5.6640   -2.1070 H   0  0
    3.8890    3.3830   -1.2070 H   0  0
    4.8030    4.7330   -1.8050 H   0  0
    2.2320    7.3010   -0.4550 H   0  0
    2.5860    6.2380    0.8830 H   0  0
    4.0590    4.4080    1.0940 H   0  0
    4.6370    7.3750   -1.0210 H   0  0
    4.3520    7.9830    0.5760 H   0  0
    6.0800    3.4710    1.6990 H   0  0
    5.4980    2.5100    0.3790 H   0  0
    6.5610    6.1620   -1.2320 H   0  0
    4.6110    6.0290    2.6060 H   0  0
    5.7720    7.3110    2.2660 H   0  0
    6.3260    5.6500    2.4630 H   0  0
    7.9590    2.9920    0.2870 H   0  0
    7.9690    5.2130    1.2770 H   0  0
    6.6060    8.4280   -0.2580 H   0  0
    7.4300    7.8380    1.1490 H   0  0
    7.9670    3.2420   -1.8030 H   0  0
    8.8890    5.4000   -1.6090 H   0  0
    9.0680    8.8970   -0.3090 H   0  0
   10.1740    3.5720   -0.8320 H   0  0
   10.2950    4.2290    0.7790 H   0  0
    7.9430    8.7360   -2.1970 H   0  0
   10.8170    6.8050   -2.0160 H   0  0
   10.7270    6.1800    1.6230 H   0  0
    9.0760    6.7310    1.9040 H   0  0
   10.3500    7.9010    1.5680 H   0  0
   11.9830    4.8830   -1.5290 H   0  0
   12.2110    5.2890    0.1470 H   0  0
   12.1390    7.6450    0.5100 H   0  0
   13.2350    7.7660   -2.3570 H   0  0
   13.5470    6.4670   -1.3400 H   0  0
   12.2350    9.8930   -1.0620 H   0  0
   10.7640    9.1410   -1.7090 H   0  0
   10.8730    9.5490    0.0000 H   0  0
   14.5630    7.9810    0.3580 H   0  0
   14.3190    9.3710   -0.6970 H   0  0
   17.7400    8.4690   -1.2750 H   0  0
  1  2  2  0
  1  3  2  0
  1  4  1  0
  1  5  1  0
  4  6  1  0
  6  7  2  0
  6  8  1  0
  7  9  1  0
  7 10  1  0
  8 11  2  0
  9 12  1  0
  9 13  2  0
 12 14  1  0
 12 15  1  0
 14 16  1  0
 15 17  1  0
 16 18  2  0
 16 19  1  0
 17 20  2  0
 17 21  1  0
 18 22  1  0
 19 23  2  0
 20 24  1  0
 21 25  2  0
 22 26  2  0
 24 27  2  0
 26 28  1  0
 28 29  1  0
 29 30  2  0
 29 31  1  0
 30 32  1  0
 31 33  2  0
 32 34  2  0
 34 35  1  0
 35 36  1  0
 36 37  1  0
 37 38  1  0
 38 39  2  0
 38 40  1  0
 40 41  1  0
 41 42  1  0
 42 43  1  0
 44 43  1  0
 44 45  1  0
 44 46  1  0
 47 45  1  0
 46 48  1  0
 47 49  1  0
 47 50  1  0
 49 51  1  0
 49 52  1  0
 50 53  1  0
 54 51  1  0
 51 55  1  0
 53 56  1  0
 54 57  1  0
 55 58  1  0
 57 59  1  0
 57 60  1  0
 58 61  1  0
 59 62  1  0
 59 63  1  0
 60 64  1  0
 62 65  1  0
 65 66  1  0
 65 67  1  0
 66 68  1  0
 68 69  1  0
 69 70  2  0
 69 71  1  0
 11 13  1  0
 23 26  1  0
 25 27  1  0
 33 34  1  0
 48 49  1  0
 53 54  1  0
 58 59  1  0
 62 64  1  0
  4 72  1  0
  5 73  1  0
  5 74  1  0
  5 75  1  0
  8 76  1  0
 10 77  1  0
 10 78  1  0
 10 79  1  0
 11 80  1  0
 13 81  1  0
 14 82  1  0
 14 83  1  0
 15 84  1  0
 15 85  1  0
 18 86  1  0
 19 87  1  0
 20 88  1  0
 21 89  1  0
 22 90  1  0
 23 91  1  0
 24 92  1  0
 25 93  1  0
 27 94  1  0
 30 95  1  0
 31 96  1  0
 32 97  1  0
 33 98  1  0
 35 99  1  0
 35100  1  0
 36101  1  0
 36102  1  0
 37103  1  0
 37104  1  0
 40105  1  0
 41106  1  0
 41107  1  0
 42108  1  0
 42109  1  0
 44110  1  0
 45111  1  0
 45112  1  0
 46113  1  0
 46114  1  0
 47115  1  0
 48116  1  0
 48117  1  0
 50118  1  0
 50119  1  0
 51120  1  0
 52121  1  0
 52122  1  0
 52123  1  0
 53124  1  0
 54125  1  0
 55126  1  0
 55127  1  0
 56128  1  0
 57129  1  0
 58130  1  0
 60131  1  0
 60132  1  0
 61133  1  0
 62134  1  0
 63135  1  0
 63136  1  0
 63137  1  0
 64138  1  0
 64139  1  0
 65140  1  0
 66141  1  0
 66142  1  0
 67143  1  0
 67144  1  0
 67145  1  0
 68146  1  0
 68147  1  0
 71148  1  0
M  END
> <Name>
CHEMBL268220

> <IC50 nM>
50

> <Molecule_ChEMBL_ID>
CHEMBL268220

> <Smiles>
Cc1c(NS(C)(=O)=O)cccc1N(Cc1ccccc1)Cc1ccc(Oc2ccc(CCCC(=O)NCCO[C@H]3CC[C@@]4(C)[C@@H](C3)C[C@@H](O)[C@@H]3[C@@H]4C[C@H](O)[C@]4(C)[C@@H]([C@H](C)CCC(=O)O)CC[C@@H]34)cc2)cc1

$$$$
CHEMBL4099639
  SciTegic08162514323D

 53 56  0  0  1  0            999 V2000
    6.0780    5.7520   -1.6090 F   0  0
    5.5900    4.5180   -1.5160 C   0  0
    6.1210    3.4880   -2.3110 C   0  0
    4.5430    4.2420   -0.6190 C   0  0
    5.6070    2.1840   -2.2110 C   0  0
    4.0250    2.9390   -0.5180 C   0  0
    4.5590    1.9060   -1.3120 C   0  0
    4.0610    0.6450   -1.2170 N   0  0
    4.8110   -0.5100   -1.1910 N   0  0
    2.7540    0.2910   -1.1250 C   0  0
    4.0800   -1.6760   -1.0880 C   0  0
    2.8280   -1.0880   -1.0530 C   0  0
    1.5310    1.0020   -1.1000 C   0  0
    1.6310   -1.8440   -0.9430 C   0  0
    0.3320    0.2520   -0.9920 C   0  0
    0.3830   -1.1660   -0.9140 C   0  0
   -0.7560   -1.8690   -0.8120 O   0  0
   -1.9040   -1.2070   -0.3050 C   0  0  2  0  0  0
   -1.5900   -0.6110    1.0200 C   0  0
   -3.0650   -2.1990   -0.2150 C   0  0  1  0  0  0
   -1.9860    0.7050    1.3130 C   0  0
   -0.8930   -1.3650    1.9820 C   0  0
   -4.2950   -1.5290    0.2310 N   0  0
   -3.2950   -2.9590   -1.5210 C   0  0
   -1.6900    1.2710    2.5650 C   0  0
   -0.5960   -0.8010    3.2340 C   0  0
   -5.3010   -2.2720    0.7810 C   0  0
   -2.0630    2.5060    2.8380 O   0  0
   -0.9940    0.5160    3.5240 C   0  0
   -5.1800   -3.4690    0.9020 O   0  0
   -6.5550   -1.5700    1.2310 C   0  0
   -7.3970   -2.5240    1.7420 F   0  0
   -7.1600   -0.9450    0.1720 F   0  0
   -6.2660   -0.6480    2.2030 F   0  0
    6.9260    3.6950   -3.0000 H   0  0
    4.1310    5.0310   -0.0060 H   0  0
    6.0290    1.4040   -2.8300 H   0  0
    3.2210    2.7460    0.1780 H   0  0
    4.4320   -2.6990   -1.0490 H   0  0
    1.5060    2.0800   -1.1580 H   0  0
    1.6580   -2.9220   -0.8850 H   0  0
   -0.6190    0.7620   -0.9690 H   0  0
   -2.1780   -0.4160   -1.0040 H   0  0
   -2.8280   -3.0080    0.4770 H   0  0
   -2.5220    1.2850    0.5740 H   0  0
   -0.5860   -2.3770    1.7640 H   0  0
   -4.3990   -0.5410    0.1290 H   0  0
   -4.1020   -3.6840   -1.4080 H   0  0
   -3.5470   -2.2700   -2.3280 H   0  0
   -2.3970   -3.5020   -1.8140 H   0  0
   -0.0610   -1.3790    3.9730 H   0  0
   -1.8520    2.8830    3.7030 H   0  0
   -0.7640    0.9470    4.4880 H   0  0
  1  2  1  0
  2  3  2  0
  2  4  1  0
  3  5  1  0
  4  6  2  0
  5  7  2  0
  7  8  1  0
  8  9  1  0
  8 10  1  0
  9 11  2  0
 10 12  1  0
 10 13  2  0
 12 14  2  0
 13 15  1  0
 14 16  1  0
 16 17  1  0
 18 17  1  0
 18 19  1  0
 18 20  1  0
 19 21  2  0
 19 22  1  0
 20 23  1  0
 20 24  1  0
 21 25  1  0
 22 26  2  0
 23 27  1  0
 25 28  1  0
 25 29  2  0
 27 30  2  0
 27 31  1  0
 31 32  1  0
 31 33  1  0
 31 34  1  0
  6  7  1  0
 11 12  1  0
 15 16  2  0
 26 29  1  0
  3 35  1  0
  4 36  1  0
  5 37  1  0
  6 38  1  0
 11 39  1  0
 13 40  1  0
 14 41  1  0
 15 42  1  0
 18 43  1  0
 20 44  1  0
 21 45  1  0
 22 46  1  0
 23 47  1  0
 24 48  1  0
 24 49  1  0
 24 50  1  0
 26 51  1  0
 28 52  1  0
 29 53  1  0
M  END
> <Name>
CHEMBL4099639

> <IC50 nM>
8

> <Molecule_ChEMBL_ID>
CHEMBL4099639

> <Smiles>
C[C@H](NC(=O)C(F)(F)F)[C@H](Oc1ccc2c(cnn2-c2ccc(F)cc2)c1)c1cccc(O)c1

$$$$
CHEMBL4086388
  SciTegic08162514323D

 60 64  0  0  1  0            999 V2000
    0.2270    2.2830    8.7150 F   0  0
    0.3340    1.3730    7.7500 C   0  0
    1.2700    0.3320    7.8670 C   0  0
   -0.4880    1.4530    6.6110 C   0  0
    1.3850   -0.6290    6.8480 C   0  0
   -0.3750    0.4920    5.5920 C   0  0
    0.5630   -0.5510    5.7090 C   0  0
    0.6720   -1.4810    4.7230 N   0  0
    0.8140   -2.8380    4.9160 N   0  0
    0.6640   -1.2540    3.3850 C   0  0
    0.9080   -3.5840    3.7600 C   0  0
    0.8050   -2.5290    2.8690 C   0  0
    0.5510   -0.1020    2.5740 C   0  0
    0.8400   -2.7090    1.4630 C   0  0
    0.5860   -0.2750    1.1680 C   0  0
    0.7300   -1.5760    0.6130 C   0  0
    0.7620   -1.7340   -0.7170 O   0  0
    0.9040   -0.5740   -1.5230 C   0  0  2  0  0  0
   -0.3950    0.1050   -1.6390 C   0  0
    1.4550   -0.9710   -2.8950 C   0  0  1  0  0  0
   -1.5880   -0.6470   -1.7400 C   0  0
   -0.4610    1.5140   -1.6460 C   0  0
    1.6950    0.2150   -3.7290 N   0  0
    2.7110   -1.8360   -2.7970 C   0  0
   -2.8570   -0.0200   -1.8540 C   0  0
   -1.7190    2.1440   -1.7620 C   0  0
    1.6370    0.1010   -5.0880 C   0  0
   -4.0650   -0.5720   -1.9550 O   0  0
   -2.9100    1.3810   -1.8670 C   0  0
    1.3890   -0.9650   -5.6020 O   0  0
    1.8850    1.3260   -5.9280 C   0  0
   -5.0840    0.4390   -2.0370 C   0  0
   -4.3480    1.8120   -2.0020 C   0  0
    3.0270    1.9630   -5.5200 F   0  0
    1.9960    0.9860   -7.2500 F   0  0
    0.6880    2.2600   -5.7400 C   0  0
    1.9040    0.2680    8.7400 H   0  0
   -1.2090    2.2520    6.5180 H   0  0
    2.1110   -1.4240    6.9570 H   0  0
   -1.0160    0.5720    4.7250 H   0  0
    1.0230   -4.6540    3.6490 H   0  0
    0.4410    0.8830    3.0080 H   0  0
    0.9490   -3.6950    1.0310 H   0  0
    0.5040    0.5820    0.5180 H   0  0
    1.6210    0.0900   -1.0410 H   0  0
    0.7640   -1.6390   -3.4080 H   0  0
   -1.5390   -1.7250   -1.7320 H   0  0
    0.4380    2.1070   -1.5680 H   0  0
    1.9000    1.0980   -3.3050 H   0  0
    3.0630   -2.1190   -3.7890 H   0  0
    3.5080   -1.3030   -2.2770 H   0  0
    2.5080   -2.7520   -2.2420 H   0  0
   -1.7730    3.2230   -1.7700 H   0  0
   -5.7580    0.3240   -1.1990 H   0  0
   -5.6410    0.3030   -2.9510 H   0  0
   -4.4920    2.3750   -2.9120 H   0  0
   -4.6490    2.4180   -1.1580 H   0  0
    0.7770    3.1600   -6.3460 H   0  0
    0.5960    2.5640   -4.6970 H   0  0
   -0.2380    1.7600   -6.0230 H   0  0
  1  2  1  0
  2  3  2  0
  2  4  1  0
  3  5  1  0
  4  6  2  0
  5  7  2  0
  7  8  1  0
  8  9  1  0
  8 10  1  0
  9 11  2  0
 10 12  1  0
 10 13  2  0
 12 14  2  0
 13 15  1  0
 14 16  1  0
 16 17  1  0
 18 17  1  0
 18 19  1  0
 18 20  1  0
 19 21  2  0
 19 22  1  0
 20 23  1  0
 20 24  1  0
 21 25  1  0
 22 26  2  0
 23 27  1  0
 25 28  1  0
 25 29  2  0
 27 30  2  0
 27 31  1  0
 28 32  1  0
 29 33  1  0
 31 34  1  0
 31 35  1  0
 31 36  1  0
  6  7  1  0
 11 12  1  0
 15 16  2  0
 26 29  1  0
 32 33  1  0
  3 37  1  0
  4 38  1  0
  5 39  1  0
  6 40  1  0
 11 41  1  0
 13 42  1  0
 14 43  1  0
 15 44  1  0
 18 45  1  0
 20 46  1  0
 21 47  1  0
 22 48  1  0
 23 49  1  0
 24 50  1  0
 24 51  1  0
 24 52  1  0
 26 53  1  0
 32 54  1  0
 32 55  1  0
 33 56  1  0
 33 57  1  0
 36 58  1  0
 36 59  1  0
 36 60  1  0
M  END
> <Name>
CHEMBL4086388

> <IC50 nM>
0.03

> <Molecule_ChEMBL_ID>
CHEMBL4086388

> <Smiles>
C[C@H](NC(=O)C(C)(F)F)[C@H](Oc1ccc2c(cnn2-c2ccc(F)cc2)c1)c1ccc2c(c1)OCC2

$$$$
CHEMBL4059755
  SciTegic08162514323D

 69 73  0  0  1  0            999 V2000
   -7.6080   -1.6780    3.3420 F   0  0
   -7.9280   -2.6000    2.3790 C   0  0
   -8.5820   -1.9770    1.3500 F   0  0
   -6.6880   -3.2890    1.8750 C   0  0
   -8.8340   -3.6740    2.9820 C   0  0
   -6.5530   -4.4840    1.9840 O   0  0
   -5.7130   -2.5350    1.2870 N   0  0
   -4.4940   -3.1910    0.7890 C   0  0  2  0  0  0
   -3.3300   -2.2030    0.7190 C   0  0  2  0  0  0
   -4.7560   -3.8930   -0.5430 C   0  0
   -2.1920   -2.8520    0.1700 O   0  0
   -2.9900   -1.6580    2.0590 C   0  0
   -1.0550   -2.1500    0.0680 C   0  0
   -3.3190   -0.3300    2.3830 C   0  0
   -2.3420   -2.4730    3.0060 C   0  0
    0.1930   -2.8260    0.0370 C   0  0
   -1.1040   -0.7310   -0.0100 C   0  0
   -2.9980    0.1840    3.6520 C   0  0
   -2.0220   -1.9570    4.2740 C   0  0
    1.3900   -2.0700   -0.0700 C   0  0
    0.0940    0.0180   -0.1170 C   0  0
   -2.3500   -0.6290    4.5980 C   0  0
    1.3160   -0.6910   -0.1430 C   0  0
    2.6420   -2.6580   -0.1050 C   0  0
    2.6230   -0.3380   -0.2340 N   0  0
    3.3730   -1.4920   -0.2110 N   0  0
    3.1210    0.9240   -0.3320 C   0  0
    4.1760    1.2010   -1.2230 C   0  0
    2.5820    1.9570    0.4590 C   0  0
    4.6890    2.5060   -1.3220 C   0  0
    3.0980    3.2600    0.3590 C   0  0
    5.8090    2.8010   -2.2680 C   0  0
    4.1500    3.5350   -0.5290 C   0  0
    6.5820    1.9340   -2.6040 O   0  0
    5.9430    4.0700   -2.7500 N   0  0
    7.0430    4.3770   -3.6860 C   0  0  1  0  0  0
    6.7660    3.9470   -5.1000 C   0  0
    7.2910    5.8770   -3.8610 C   0  0
    6.2710    2.8770   -5.3690 O   0  0
    7.1090    4.8610   -6.0000 O   0  0
    7.7930    5.9000   -5.3070 C   0  0
   -9.7600   -3.2500    3.3730 H   0  0
   -8.3300   -4.1860    3.8030 H   0  0
   -9.0980   -4.4200    2.2340 H   0  0
   -5.8260   -1.5450    1.1970 H   0  0
   -4.2480   -4.0310    1.4390 H   0  0
   -3.6100   -1.3850    0.0550 H   0  0
   -5.5670   -4.6150   -0.4470 H   0  0
   -5.0180   -3.1680   -1.3140 H   0  0
   -3.8690   -4.4300   -0.8770 H   0  0
   -3.8190    0.3010    1.6620 H   0  0
   -2.0860   -3.4940    2.7640 H   0  0
    0.2210   -3.9040    0.0980 H   0  0
   -2.0550   -0.2210    0.0120 H   0  0
   -3.2520    1.2050    3.9000 H   0  0
   -1.5240   -2.5820    5.0000 H   0  0
    0.0700    1.0960   -0.1760 H   0  0
   -2.1040   -0.2340    5.5720 H   0  0
    2.9940   -3.6820   -0.0660 H   0  0
    4.5980    0.4140   -1.8360 H   0  0
    1.7730    1.7640    1.1500 H   0  0
    2.6830    4.0530    0.9670 H   0  0
    4.5390    4.5410   -0.6020 H   0  0
    5.2990    4.7810   -2.4670 H   0  0
    7.9390    3.8850   -3.3400 H   0  0
    6.3770    6.4490   -3.7850 H   0  0
    8.0080    6.2770   -3.1580 H   0  0
    7.6150    6.8440   -5.8010 H   0  0
    8.8530    5.6900   -5.3460 H   0  0
  1  2  1  0
  2  3  1  0
  2  4  1  0
  2  5  1  0
  4  6  2  0
  4  7  1  0
  7  8  1  0
  8  9  1  0
  8 10  1  0
  9 11  1  0
  9 12  1  0
 11 13  1  0
 12 14  2  0
 12 15  1  0
 13 16  2  0
 13 17  1  0
 14 18  1  0
 15 19  2  0
 16 20  1  0
 17 21  2  0
 18 22  2  0
 20 23  2  0
 20 24  1  0
 23 25  1  0
 24 26  2  0
 25 27  1  0
 27 28  2  0
 27 29  1  0
 28 30  1  0
 29 31  2  0
 30 32  1  0
 30 33  2  0
 32 34  2  0
 32 35  1  0
 36 35  1  0
 36 37  1  0
 36 38  1  0
 37 39  2  0
 37 40  1  0
 38 41  1  0
 19 22  1  0
 21 23  1  0
 25 26  1  0
 31 33  1  0
 40 41  1  0
  5 42  1  0
  5 43  1  0
  5 44  1  0
  7 45  1  0
  8 46  1  0
  9 47  1  0
 10 48  1  0
 10 49  1  0
 10 50  1  0
 14 51  1  0
 15 52  1  0
 16 53  1  0
 17 54  1  0
 18 55  1  0
 19 56  1  0
 21 57  1  0
 22 58  1  0
 24 59  1  0
 28 60  1  0
 29 61  1  0
 31 62  1  0
 33 63  1  0
 35 64  1  0
 36 65  1  0
 38 66  1  0
 38 67  1  0
 41 68  1  0
 41 69  1  0
M  END
> <Name>
CHEMBL4059755

> <IC50 nM>
13.4

> <Molecule_ChEMBL_ID>
CHEMBL4059755

> <Smiles>
C[C@H](NC(=O)C(C)(F)F)[C@H](Oc1ccc2c(cnn2-c2cccc(C(=O)N[C@@H]3CCOC3=O)c2)c1)c1ccccc1

$$$$
CHEMBL4098197
  SciTegic08162514323D

 72 76  0  0  1  0            999 V2000
   -2.4510   -1.2290    4.8180 S   0  0
   -2.2580   -0.3380    3.6880 O   0  0
   -2.4120   -0.5900    6.1230 O   0  0
   -1.3340   -2.6210    4.7520 C   0  0
   -3.9220   -2.2190    4.6060 C   0  0
   -2.1000   -3.7890    4.1290 C   0  0  3  0  0  0
   -3.4900   -3.6760    4.7680 C   0  0
   -2.1350   -3.7230    2.6520 N   0  0
   -2.4340   -4.8460    1.9380 C   0  0
   -2.6680   -5.8870    2.5060 O   0  0
   -2.4670   -4.7620    0.4470 C   0  0
   -1.6920   -3.7950   -0.2210 C   0  0
   -3.2720   -5.6490   -0.2910 C   0  0
   -1.7210   -3.7150   -1.6270 C   0  0
   -3.3030   -5.5680   -1.6930 C   0  0
   -0.9750   -2.7830   -2.2730 N   0  0
   -2.5290   -4.6060   -2.3610 C   0  0
   -0.2400   -3.0020   -3.4200 N   0  0
   -0.8110   -1.4840   -1.9220 C   0  0
    0.4390   -1.9000   -3.8950 C   0  0
    0.0310   -1.0160   -2.9120 C   0  0
   -1.2910   -0.6720   -0.8690 C   0  0
    0.4430    0.3440   -2.8890 C   0  0
   -0.8830    0.6860   -0.8400 C   0  0
   -0.0180    1.1910   -1.8480 C   0  0
    0.3630    2.4770   -1.8160 O   0  0
    1.5330    2.8420   -2.5330 C   0  0  2  0  0  0
    2.6820    2.0270   -2.0570 C   0  0
    1.7930    4.3380   -2.3540 C   0  0  1  0  0  0
    3.6720    1.6090   -2.9650 C   0  0
    2.7770    1.6700   -0.7010 C   0  0
    1.9410    4.6800   -0.9300 N   0  0
    2.9940    4.8300   -3.1620 C   0  0
    4.7560    0.8380   -2.5160 C   0  0
    3.8630    0.8980   -0.2520 C   0  0
    0.8340    5.0180   -0.2030 C   0  0
    4.8540    0.4820   -1.1580 C   0  0
   -0.2560    5.0350   -0.7250 O   0  0
    1.0040    5.3650    1.2500 C   0  0
   -0.2190    5.4630    1.8650 F   0  0
    1.7600    4.4140    1.8870 F   0  0
    1.7190    6.7150    1.3180 C   0  0
   -0.4280   -2.3650    4.2210 H   0  0
   -1.0490   -2.8730    5.7640 H   0  0
   -4.3050   -2.0550    3.6090 H   0  0
   -4.6900   -1.9340    5.3090 H   0  0
   -1.6370   -4.7270    4.3990 H   0  0
   -4.2050   -4.3540    4.3260 H   0  0
   -3.4300   -3.9220    5.8180 H   0  0
   -1.9430   -2.8650    2.1740 H   0  0
   -1.0740   -3.1170    0.3540 H   0  0
   -3.8690   -6.3930    0.2150 H   0  0
   -3.9220   -6.2500   -2.2580 H   0  0
   -2.5670   -4.5610   -3.4410 H   0  0
    1.0780   -1.8160   -4.7660 H   0  0
   -1.9490   -1.0680   -0.1090 H   0  0
    1.1010    0.7380   -3.6500 H   0  0
   -1.2310    1.3340   -0.0510 H   0  0
    1.3610    2.6460   -3.5900 H   0  0
    0.9800    4.9260   -2.7790 H   0  0
    3.6030    1.8790   -4.0080 H   0  0
    2.0210    1.9880    0.0020 H   0  0
    2.8420    4.6660   -0.4980 H   0  0
    3.1150    5.9080   -3.0570 H   0  0
    3.9080    4.3360   -2.8320 H   0  0
    2.8610    4.6110   -4.2210 H   0  0
    5.5180    0.5180   -3.2130 H   0  0
    3.9370    0.6250    0.7910 H   0  0
    5.6880   -0.1110   -0.8140 H   0  0
    1.9300    7.0120    2.3460 H   0  0
    1.1090    7.4960    0.8650 H   0  0
    2.6660    6.6760    0.7810 H   0  0
  1  2  2  0
  1  3  2  0
  1  4  1  0
  1  5  1  0
  4  6  1  0
  5  7  1  0
  6  8  1  0
  8  9  1  0
  9 10  2  0
  9 11  1  0
 11 12  2  0
 11 13  1  0
 12 14  1  0
 13 15  2  0
 14 16  1  0
 14 17  2  0
 16 18  1  0
 16 19  1  0
 18 20  2  0
 19 21  1  0
 19 22  2  0
 21 23  2  0
 22 24  1  0
 23 25  1  0
 25 26  1  0
 27 26  1  0
 27 28  1  0
 27 29  1  0
 28 30  2  0
 28 31  1  0
 29 32  1  0
 29 33  1  0
 30 34  1  0
 31 35  2  0
 32 36  1  0
 34 37  2  0
 36 38  2  0
 36 39  1  0
 39 40  1  0
 39 41  1  0
 39 42  1  0
  6  7  1  0
 15 17  1  0
 20 21  1  0
 24 25  2  0
 35 37  1  0
  4 43  1  0
  4 44  1  0
  5 45  1  0
  5 46  1  0
  6 47  1  0
  7 48  1  0
  7 49  1  0
  8 50  1  0
 12 51  1  0
 13 52  1  0
 15 53  1  0
 17 54  1  0
 20 55  1  0
 22 56  1  0
 23 57  1  0
 24 58  1  0
 27 59  1  0
 29 60  1  0
 30 61  1  0
 31 62  1  0
 32 63  1  0
 33 64  1  0
 33 65  1  0
 33 66  1  0
 34 67  1  0
 35 68  1  0
 37 69  1  0
 42 70  1  0
 42 71  1  0
 42 72  1  0
M  END
> <Name>
CHEMBL4098197

> <IC50 nM>
2.4

> <Molecule_ChEMBL_ID>
CHEMBL4098197

> <Smiles>
C[C@H](NC(=O)C(C)(F)F)[C@H](Oc1ccc2c(cnn2-c2cccc(C(=O)NC3CCS(=O)(=O)C3)c2)c1)c1ccccc1

$$$$
CHEMBL429842
  SciTegic08162514323D

 47 50  0  0  1  0            999 V2000
   -1.0880    2.5040   -0.4880 Cl  0  0
   -0.5120    0.9490    0.0190 C   0  0
   -1.4280   -0.1370    0.1150 C   0  0
    0.8750    0.7360    0.3320 C   0  0
   -2.8600    0.0330   -0.1330 C   0  0
   -0.9790   -1.4280    0.4550 C   0  0
    1.3340   -0.6020    0.5900 C   0  0
    1.8420    1.8910    0.3770 C   0  0  2  0  0  0
   -3.4830   -0.5570   -1.2620 C   0  0
   -3.6490    0.7990    0.7640 C   0  0
    0.3930   -1.6680    0.6780 C   0  0
    2.6620   -0.8690    0.7440 N   0  0
    3.2190    1.5100    0.9530 C   0  0
    1.3260    3.0800    1.2030 C   0  0
   -2.9920   -1.3440   -2.2970 N   0  0
   -4.8260   -0.3960   -1.4940 C   0  0
   -5.0390    0.9630    0.5210 C   0  0
    0.7990   -3.0530    0.9920 C   0  0
    3.7110    0.1430    0.4690 C   0  0
   -4.0820   -1.6430   -3.1490 C   0  0
   -5.6430    0.3630   -0.6170 C   0  0
   -5.2330   -1.0330   -2.6170 C   0  0
   -5.7740    1.6840    1.3670 F   0  0
    4.9960   -0.2400    1.2150 C   0  0
    3.9920    0.1660   -1.0370 C   0  0
   -6.9470    0.5140   -0.8460 F   0  0
   -1.6800   -2.2480    0.5430 H   0  0
    1.9880    2.2230   -0.6520 H   0  0
   -3.2030    1.2640    1.6350 H   0  0
    2.9690   -1.7790    1.0250 H   0  0
    3.1620    1.4980    2.0450 H   0  0
    3.9490    2.2830    0.7050 H   0  0
    0.9040    3.8460    0.5530 H   0  0
    0.5620    2.7540    1.9120 H   0  0
    2.1370    3.5350    1.7710 H   0  0
   -2.0530   -1.6430   -2.4220 H   0  0
    1.3240   -3.1600    1.9410 H   0  0
    1.4530   -3.4280    0.2050 H   0  0
   -0.0820   -3.6930    1.0250 H   0  0
   -4.0020   -2.2440   -4.0450 H   0  0
   -6.2310   -1.0700   -3.0330 H   0  0
    4.8380   -0.2950    2.2930 H   0  0
    5.7810    0.4900    1.0290 H   0  0
    5.3590   -1.2130    0.8810 H   0  0
    3.0960    0.3910   -1.6130 H   0  0
    4.3730   -0.7970   -1.3730 H   0  0
    4.7400    0.9220   -1.2770 H   0  0
  1  2  1  0
  2  3  2  0
  2  4  1  0
  3  5  1  0
  3  6  1  0
  4  7  2  0
  4  8  1  0
  5  9  2  0
  5 10  1  0
  6 11  2  0
  7 12  1  0
  8 13  1  0
  8 14  1  0
  9 15  1  0
  9 16  1  0
 10 17  2  0
 11 18  1  0
 12 19  1  0
 15 20  1  0
 16 21  2  0
 16 22  1  0
 17 23  1  0
 19 24  1  0
 19 25  1  0
 21 26  1  0
  7 11  1  0
 13 19  1  0
 17 21  1  0
 20 22  2  0
  6 27  1  0
  8 28  1  0
 10 29  1  0
 12 30  1  0
 13 31  1  0
 13 32  1  0
 14 33  1  0
 14 34  1  0
 14 35  1  0
 15 36  1  0
 18 37  1  0
 18 38  1  0
 18 39  1  0
 20 40  1  0
 22 41  1  0
 24 42  1  0
 24 43  1  0
 24 44  1  0
 25 45  1  0
 25 46  1  0
 25 47  1  0
M  END
> <Name>
CHEMBL429842

> <IC50 nM>
11

> <Molecule_ChEMBL_ID>
CHEMBL429842

> <Smiles>
Cc1cc(-c2cc(F)c(F)c3cc[nH]c23)c(Cl)c2c1NC(C)(C)CC2C

$$$$
CHEMBL525442
  SciTegic08162514323D

 74 78  0  0  1  0            999 V2000
   -3.1820   -0.1440   -0.8710 F   0  0
   -3.0430    0.6210    0.2700 C   0  0  2  0  0  0
   -4.4960    1.0000    0.7300 C   0  0  2  0  0  0
   -2.1390    1.8180   -0.1780 C   0  0  1  0  0  0
   -2.3520   -0.2790    1.3360 C   0  0  2  0  0  0
   -5.2830   -0.2660    1.0880 C   0  0
   -5.1950    1.8610   -0.3180 C   0  0
   -4.4900    1.8280    2.0250 C   0  0
   -2.1600    2.8670    0.7710 O   0  0
   -0.6640    1.4240   -0.4450 C   0  0
   -0.9180   -0.6310    0.8960 C   0  0  1  0  0  0
   -3.1600   -1.5680    1.5880 C   0  0
   -6.5310   -0.4940    0.6270 C   0  0
   -4.6060   -1.2640    2.0060 C   0  0
   -6.4400    1.6020   -0.7680 C   0  0
   -0.0570    0.6250    0.7230 C   0  0  1  0  0  0
   -0.0940   -1.4690    1.8730 C   0  0
   -7.1970    0.4490   -0.2770 C   0  0
    1.3200   -0.0230    0.4790 C   0  0  1  0  0  0
    0.0290    1.4590    2.0140 C   0  0
    1.3710   -1.1370    1.5470 C   0  0  1  0  0  0
   -8.3480    0.2790   -0.6130 O   0  0
    1.3340   -0.6370   -0.8050 O   0  0
    2.4820    0.9450    0.5060 C   0  0
    2.0900   -0.7320    2.8360 C   0  0
    2.5470   -1.0640   -1.1470 C   0  0
    2.3160    2.1230    0.2930 O   0  0
    3.8520    0.3980    0.8050 C   0  0
    3.1290   -1.9590   -0.5800 O   0  0
    3.1250   -0.4260   -2.2070 N   0  0
    4.4340    1.1350    1.8550 O   0  0
    4.4690   -0.8360   -2.6540 C   0  0
    5.0700    0.0840   -3.7110 C   0  0
    4.4940   -2.1870   -3.3710 C   0  0
    6.2760   -0.7270   -4.1720 C   0  0
    5.7560   -2.1620   -4.2320 C   0  0
   -2.5370    2.2500   -1.0980 H   0  0
   -2.3030    0.2720    2.2770 H   0  0
   -4.6820    2.7210   -0.7250 H   0  0
   -5.4550    1.7990    2.5290 H   0  0
   -4.2560    2.8710    1.8140 H   0  0
   -3.7400    1.4510    2.7190 H   0  0
   -2.6800    3.5920    0.3870 H   0  0
   -0.6350    0.8200   -1.3520 H   0  0
   -0.0610    2.3090   -0.6600 H   0  0
   -0.9650   -1.1700   -0.0410 H   0  0
   -3.1660   -2.1890    0.6890 H   0  0
   -2.6880   -2.1660    2.3650 H   0  0
   -7.0570   -1.3910    0.9220 H   0  0
   -5.1740   -2.1950    2.0490 H   0  0
   -4.6070   -0.8590    3.0200 H   0  0
   -6.8790    2.2620   -1.5000 H   0  0
   -0.3070   -2.5210    1.7560 H   0  0
   -0.3520   -1.2050    2.8910 H   0  0
   -0.9490    1.8220    2.3280 H   0  0
    0.6760    2.3240    1.8690 H   0  0
    0.4430    0.8650    2.8280 H   0  0
    1.8730   -2.0040    1.1450 H   0  0
    1.4730   -0.9550    3.7050 H   0  0
    3.0390   -1.2580    2.9280 H   0  0
    2.2990    0.3380    2.8400 H   0  0
    4.4900    0.4960   -0.0740 H   0  0
    3.7740   -0.6430    1.1230 H   0  0
    2.6370    0.3150   -2.6700 H   0  0
    5.3110    0.7560    2.0200 H   0  0
    5.1150   -0.8690   -1.7870 H   0  0
    5.3560    1.0470   -3.3110 H   0  0
    4.3850    0.2500   -4.5330 H   0  0
    3.6270   -2.3050   -4.0100 H   0  0
    4.4960   -3.0140   -2.6740 H   0  0
    6.6600   -0.3850   -5.1210 H   0  0
    7.0720   -0.6480   -3.4450 H   0  0
    5.5200   -2.4430   -5.2500 H   0  0
    6.5040   -2.8550   -3.8710 H   0  0
  2  1  1  0
  2  3  1  0
  2  4  1  0
  2  5  1  0
  3  6  1  0
  3  7  1  0
  3  8  1  0
  4  9  1  0
  4 10  1  0
  5 11  1  0
  5 12  1  0
  6 13  2  0
  6 14  1  0
  7 15  2  0
 10 16  1  0
 11 17  1  0
 13 18  1  0
 16 19  1  0
 16 20  1  0
 17 21  1  0
 18 22  2  0
 19 23  1  0
 19 24  1  0
 21 25  1  0
 23 26  1  0
 24 27  2  0
 24 28  1  0
 26 29  2  0
 26 30  1  0
 28 31  1  0
 30 32  1  0
 32 33  1  0
 32 34  1  0
 33 35  1  0
 34 36  1  0
 11 16  1  0
 12 14  1  0
 15 18  1  0
 19 21  1  0
 35 36  1  0
  4 37  1  0
  5 38  1  0
  7 39  1  0
  8 40  1  0
  8 41  1  0
  8 42  1  0
  9 43  1  0
 10 44  1  0
 10 45  1  0
 11 46  1  0
 12 47  1  0
 12 48  1  0
 13 49  1  0
 14 50  1  0
 14 51  1  0
 15 52  1  0
 17 53  1  0
 17 54  1  0
 20 55  1  0
 20 56  1  0
 20 57  1  0
 21 58  1  0
 25 59  1  0
 25 60  1  0
 25 61  1  0
 28 62  1  0
 28 63  1  0
 30 64  1  0
 31 65  1  0
 32 66  1  0
 33 67  1  0
 33 68  1  0
 34 69  1  0
 34 70  1  0
 35 71  1  0
 35 72  1  0
 36 73  1  0
 36 74  1  0
M  END
> <Name>
CHEMBL525442

> <IC50 nM>
3.8

> <Molecule_ChEMBL_ID>
CHEMBL525442

> <Smiles>
C[C@H]1C[C@H]2[C@@H]3CCC4=CC(=O)C=C[C@]4(C)[C@@]3(F)[C@@H](O)C[C@]2(C)[C@@]1(OC(=O)NC1CCCC1)C(=O)CO

$$$$
CHEMBL4090392
  SciTegic08162514323D

 52 55  0  0  1  0            999 V2000
    4.4360   -3.7010    1.0800 F   0  0
    3.3570   -2.9530    0.8520 C   0  0
    2.0860   -3.3830    1.2930 C   0  0
    3.4880   -1.7310    0.1660 C   0  0
    1.9920   -4.5470    1.9530 O   0  0
    0.9240   -2.5960    1.0450 C   0  0
    2.3540   -0.9260   -0.0590 C   0  0
    1.0640   -1.3220    0.4000 C   0  0
   -0.4140   -3.1170    1.4750 C   0  0  1  0  0  0
   -0.1130   -0.4120    0.1860 C   0  0  2  0  0  0
   -1.6050   -2.2990    0.9410 C   0  0
   -0.6190   -4.5880    1.0840 C   0  0
    0.2050    1.0350    0.3300 N   0  0
   -1.3730   -0.7870    1.0220 C   0  0  1  0  0  0
   -0.2300   -4.8750   -0.3670 C   0  0
    0.2170    1.8340   -0.7540 C   0  0
   -1.2050   -0.4410    2.3890 O   0  0
   -2.6210   -0.0310    0.5450 C   0  0
   -0.1660    3.2110   -0.7110 C   0  0
    0.6290    1.2770   -1.9940 C   0  0
   -2.7770   -0.2130   -0.8050 F   0  0
   -2.4770    1.3070    0.8130 F   0  0
   -3.7250   -0.5120    1.2010 F   0  0
   -0.1330    4.0100   -1.9060 C   0  0
   -0.5940    3.8520    0.4940 C   0  0
    0.6640    2.0640   -3.1680 C   0  0
   -0.5040    5.3440   -1.8670 N   0  0
    0.2850    3.4240   -3.1250 C   0  0
   -0.9590    5.1840    0.5020 N   0  0
    1.0550    1.5200   -4.3180 F   0  0
   -0.9100    5.9100   -0.6720 C   0  0
   -1.3010    7.3280   -0.6500 C   0  0
    4.4550   -1.4060   -0.1890 H   0  0
    2.7930   -5.0680    2.1090 H   0  0
    2.4860    0.0080   -0.5860 H   0  0
   -0.4320   -3.0610    2.5630 H   0  0
   -0.3830   -0.5470   -0.8630 H   0  0
   -1.7890   -2.5650   -0.1020 H   0  0
   -2.5120   -2.5800    1.4820 H   0  0
   -0.0800   -5.2460    1.7660 H   0  0
   -1.6480   -4.8970    1.2750 H   0  0
    0.4100    1.4160    1.2320 H   0  0
   -0.4140   -5.9200   -0.6150 H   0  0
   -0.7950   -4.2420   -1.0490 H   0  0
    0.8300   -4.6760   -0.5270 H   0  0
   -0.3240   -0.7500    2.6560 H   0  0
    0.9260    0.2400   -2.0590 H   0  0
   -0.6430    3.3110    1.4300 H   0  0
    0.3160    4.0080   -4.0330 H   0  0
   -1.2320    7.8260   -1.6150 H   0  0
   -0.6640    7.8690    0.0510 H   0  0
   -2.3300    7.4160   -0.3010 H   0  0
  1  2  1  0
  2  3  2  0
  2  4  1  0
  3  5  1  0
  3  6  1  0
  4  7  2  0
  6  8  2  0
  6  9  1  0
  8 10  1  0
  9 11  1  0
  9 12  1  0
 10 13  1  0
 10 14  1  0
 12 15  1  0
 13 16  1  0
 14 17  1  0
 14 18  1  0
 16 19  2  0
 16 20  1  0
 18 21  1  0
 18 22  1  0
 18 23  1  0
 19 24  1  0
 19 25  1  0
 20 26  2  0
 24 27  1  0
 24 28  2  0
 25 29  2  0
 26 30  1  0
 27 31  2  0
 31 32  1  0
  7  8  1  0
 11 14  1  0
 26 28  1  0
 29 31  1  0
  4 33  1  0
  5 34  1  0
  7 35  1  0
  9 36  1  0
 10 37  1  0
 11 38  1  0
 11 39  1  0
 12 40  1  0
 12 41  1  0
 13 42  1  0
 15 43  1  0
 15 44  1  0
 15 45  1  0
 17 46  1  0
 20 47  1  0
 25 48  1  0
 28 49  1  0
 32 50  1  0
 32 51  1  0
 32 52  1  0
M  END
> <Name>
CHEMBL4090392

> <IC50 nM>
6.31

> <Molecule_ChEMBL_ID>
CHEMBL4090392

> <Smiles>
CC[C@@H]1C[C@](O)(C(F)(F)F)[C@@H](Nc2cc(F)cc3nc(C)ncc23)c2ccc(F)c(O)c21

$$$$
CHEMBL4085241
  SciTegic08162514323D

 51 54  0  0  1  0            999 V2000
   -4.3500   -2.1020   -3.0740 F   0  0
   -3.4060   -1.6130   -2.2690 C   0  0
   -3.2010   -2.1720   -0.9880 C   0  0
   -2.6110   -0.5350   -2.7030 C   0  0
   -3.9710   -3.2010   -0.6050 O   0  0
   -2.1950   -1.6540   -0.1150 C   0  0
   -1.6000   -0.0270   -1.8650 C   0  0
   -1.3520   -0.5880   -0.5780 C   0  0
   -2.0490   -2.2500    1.2560 C   0  0
   -0.2320   -0.0350    0.2620 C   0  0  2  0  0  0
   -1.1110   -1.4300    2.1740 C   0  0
   -3.4120   -2.3150    1.9630 C   0  0
   -1.5200   -3.6840    1.1210 C   0  0
    0.9710    0.3610   -0.5140 N   0  0
    0.1600   -0.9260    1.4770 C   0  0  1  0  0  0
    1.2600    1.6620   -0.6870 C   0  0
    0.9240   -2.0510    1.0660 O   0  0
    1.0430   -0.1660    2.4770 C   0  0
    2.6020    2.1350   -0.8010 C   0  0
    0.1990    2.6010   -0.7600 C   0  0
    1.2320   -0.9340    3.5960 F   0  0
    0.4300    1.0100    2.8280 F   0  0
    2.2560    0.1070    1.8990 F   0  0
    2.8650    3.5180   -0.9820 C   0  0
    3.7750    1.2130   -0.7340 C   0  0
    0.4630    3.9780   -0.9430 C   0  0
    4.2850    3.9920   -1.0960 C   0  0
    1.7930    4.4390   -1.0550 C   0  0
    5.0310    1.7010   -0.8440 C   0  0
    4.6290    5.1430   -1.2520 O   0  0
    5.2950    3.0470   -1.0190 N   0  0
   -2.7740   -0.0960   -3.6760 H   0  0
   -4.6490   -3.5330   -1.2070 H   0  0
   -1.0100    0.8030   -2.2280 H   0  0
   -0.6290    0.8940    0.6760 H   0  0
   -0.8590   -2.0100    3.0650 H   0  0
   -1.6540   -0.5550    2.5450 H   0  0
   -4.0220   -3.1390    1.5940 H   0  0
   -3.9710   -1.3910    1.8070 H   0  0
   -3.2830   -2.4490    3.0370 H   0  0
   -2.3220   -4.3650    0.8360 H   0  0
   -0.7290   -3.7350    0.3730 H   0  0
   -1.1070   -4.0330    2.0680 H   0  0
    1.5640   -0.3400   -0.9080 H   0  0
    0.7190   -2.2090    0.1310 H   0  0
   -0.8320    2.2810   -0.6780 H   0  0
    3.6370    0.1500   -0.5980 H   0  0
   -0.3560    4.6820   -0.9980 H   0  0
    1.9820    5.4940   -1.1930 H   0  0
    5.8420    0.9900   -0.7870 H   0  0
    6.2500    3.3380   -1.0920 H   0  0
  1  2  1  0
  2  3  2  0
  2  4  1  0
  3  5  1  0
  3  6  1  0
  4  7  2  0
  6  8  2  0
  6  9  1  0
  8 10  1  0
  9 11  1  0
  9 12  1  0
  9 13  1  0
 10 14  1  0
 10 15  1  0
 14 16  1  0
 15 17  1  0
 15 18  1  0
 16 19  2  0
 16 20  1  0
 18 21  1  0
 18 22  1  0
 18 23  1  0
 19 24  1  0
 19 25  1  0
 20 26  2  0
 24 27  1  0
 24 28  2  0
 25 29  2  0
 27 30  2  0
 27 31  1  0
  7  8  1  0
 11 15  1  0
 26 28  1  0
 29 31  1  0
  4 32  1  0
  5 33  1  0
  7 34  1  0
 10 35  1  0
 11 36  1  0
 11 37  1  0
 12 38  1  0
 12 39  1  0
 12 40  1  0
 13 41  1  0
 13 42  1  0
 13 43  1  0
 14 44  1  0
 17 45  1  0
 20 46  1  0
 25 47  1  0
 26 48  1  0
 28 49  1  0
 29 50  1  0
 31 51  1  0
M  END
> <Name>
CHEMBL4085241

> <IC50 nM>
6.31

> <Molecule_ChEMBL_ID>
CHEMBL4085241

> <Smiles>
CC1(C)C[C@](O)(C(F)(F)F)[C@@H](Nc2cccc3c(=O)[nH]ccc23)c2ccc(F)c(O)c21

$$$$
CHEMBL4094264
  SciTegic08162514323D

 52 55  0  0  0  0            999 V2000
   -3.6640   -1.4530    2.1730 Cl  0  0
   -1.9940   -1.8160    2.0340 C   0  0
   -1.4330   -2.0800    0.7700 C   0  0
   -1.1820   -1.8510    3.1830 C   0  0
   -0.0640   -2.3790    0.6560 C   0  0
    0.1860   -2.1520    3.0670 C   0  0
    0.7450   -2.4150    1.8050 C   0  0
    0.5280   -2.6560   -0.6790 C   0  0
    0.4880   -1.4690   -1.5450 N   0  0
   -0.0770   -1.5900   -3.0590 S   0  0
    0.9290   -0.2620   -1.0740 C   0  0
    0.5380   -0.5320   -3.8410 O   0  0
    0.2470   -2.9210   -3.5410 O   0  0
   -1.7900   -1.3900   -3.1280 C   0  0
    0.3320    0.9320   -1.5220 C   0  0
    1.9800   -0.2100   -0.1390 C   0  0
   -2.3380   -0.2370   -3.7170 C   0  0
   -2.6330   -2.3820   -2.5940 C   0  0
    0.7860    2.1700   -1.0360 C   0  0
    2.4310    1.0310    0.3440 C   0  0
   -3.7320   -0.0720   -3.7750 C   0  0
   -4.0280   -2.2220   -2.6490 C   0  0
    1.8350    2.2230   -0.1020 C   0  0
   -4.5730   -1.0670   -3.2400 C   0  0
    2.2590    3.3860    0.3520 O   0  0
   -6.0010   -0.9010   -3.2980 C   0  0
    2.6320    3.4580    1.6130 C   0  0
   -7.1520   -0.7670   -3.3450 N   0  0
    3.7170    4.2730    1.9840 C   0  0
    1.9470    2.7210    2.5960 C   0  0
    4.1150    4.3500    3.3300 C   0  0
    2.3440    2.7970    3.9420 C   0  0
    3.4290    3.6120    4.3090 C   0  0
   -2.0500   -2.0540   -0.1170 H   0  0
   -1.5980   -1.6490    4.1590 H   0  0
    0.8090   -2.1800    3.9490 H   0  0
    1.7980   -2.6450    1.7240 H   0  0
   -0.0190   -3.4680   -1.1570 H   0  0
    1.5630   -2.9770   -0.5580 H   0  0
   -0.4770    0.9130   -2.2400 H   0  0
    2.4510   -1.1150    0.2180 H   0  0
   -1.6880    0.5230   -4.1260 H   0  0
   -2.2090   -3.2660   -2.1410 H   0  0
    0.3250    3.0840   -1.3830 H   0  0
    3.2380    1.0660    1.0620 H   0  0
   -4.1410    0.8190   -4.2310 H   0  0
   -4.6650   -2.9920   -2.2350 H   0  0
    4.2470    4.8410    1.2340 H   0  0
    1.1130    2.0930    2.3180 H   0  0
    4.9490    4.9770    3.6110 H   0  0
    1.8160    2.2300    4.6940 H   0  0
    3.7340    3.6720    5.3430 H   0  0
  1  2  1  0
  2  3  2  0
  2  4  1  0
  3  5  1  0
  4  6  2  0
  5  7  2  0
  5  8  1  0
  8  9  1  0
  9 10  1  0
  9 11  1  0
 10 12  2  0
 10 13  2  0
 10 14  1  0
 11 15  2  0
 11 16  1  0
 14 17  2  0
 14 18  1  0
 15 19  1  0
 16 20  2  0
 17 21  1  0
 18 22  2  0
 19 23  2  0
 21 24  2  0
 23 25  1  0
 24 26  1  0
 25 27  1  0
 26 28  3  0
 27 29  2  0
 27 30  1  0
 29 31  1  0
 30 32  2  0
 31 33  2  0
  6  7  1  0
 20 23  1  0
 22 24  1  0
 32 33  1  0
  3 34  1  0
  4 35  1  0
  6 36  1  0
  7 37  1  0
  8 38  1  0
  8 39  1  0
 15 40  1  0
 16 41  1  0
 17 42  1  0
 18 43  1  0
 19 44  1  0
 20 45  1  0
 21 46  1  0
 22 47  1  0
 29 48  1  0
 30 49  1  0
 31 50  1  0
 32 51  1  0
 33 52  1  0
M  END
> <Name>
CHEMBL4094264

> <IC50 nM>
5420

> <Molecule_ChEMBL_ID>
CHEMBL4094264

> <Smiles>
N#Cc1ccc(S(=O)(=O)N(Cc2cccc(Cl)c2)c2ccc(Oc3ccccc3)cc2)cc1

$$$$
CHEMBL4086504
  SciTegic08162514323D

 52 55  0  0  0  0            999 V2000
    1.0450   -0.2680   -2.5120 S   0  0
    1.6580    0.7680   -3.3260 O   0  0
    1.3650   -1.6130   -2.9570 O   0  0
    1.6150   -0.1060   -1.0040 N   0  0
   -0.6680   -0.0680   -2.5800 C   0  0
    0.7520   -0.1090    0.0590 C   0  0
    3.0590    0.0470   -0.7770 C   0  0
   -1.2170    1.0840   -3.1700 C   0  0
   -1.5120   -1.0590   -2.0470 C   0  0
    0.9280   -1.0310    1.1080 C   0  0
   -0.3140    0.8110    0.1070 C   0  0
    3.8070   -1.1740   -1.1740 C   0  0
   -2.6110    1.2500   -3.2280 C   0  0
   -2.9060   -0.9000   -2.1020 C   0  0
    0.0390   -1.0330    2.1970 C   0  0
   -1.1990    0.8050    1.1990 C   0  0
    4.1760   -1.3690   -2.5180 C   0  0
    4.1490   -2.1370   -0.2070 C   0  0
   -3.4510    0.2560   -2.6930 C   0  0
   -1.0230   -0.1170    2.2460 C   0  0
    4.8830   -2.5250   -2.8930 C   0  0
    4.8560   -3.2910   -0.5820 C   0  0
   -4.8790    0.4220   -2.7500 C   0  0
   -1.8550   -0.1210    3.2700 O   0  0
    5.2230   -3.4860   -1.9240 C   0  0
   -6.0310    0.5550   -2.7970 N   0  0
   -2.3140    1.0390    3.6970 C   0  0
    5.8930   -4.5800   -2.2790 F   0  0
   -3.6370    1.1460    4.1620 C   0  0
   -1.4840    2.1740    3.6920 C   0  0
   -4.1270    2.3810    4.6190 C   0  0
   -1.9730    3.4080    4.1490 C   0  0
   -3.2950    3.5140    4.6110 C   0  0
    3.4240    0.9000   -1.3520 H   0  0
    3.2360    0.2560    0.2770 H   0  0
   -0.5660    1.8460   -3.5780 H   0  0
   -1.0880   -1.9430   -1.5940 H   0  0
    1.7400   -1.7460    1.0900 H   0  0
   -0.4650    1.5270   -0.6890 H   0  0
   -3.0200    2.1410   -3.6840 H   0  0
   -3.5430   -1.6700   -1.6870 H   0  0
    0.1780   -1.7440    3.0000 H   0  0
   -2.0140    1.5120    1.2310 H   0  0
    3.9160   -0.6350   -3.2660 H   0  0
    3.8690   -1.9920    0.8260 H   0  0
    5.1620   -2.6700   -3.9260 H   0  0
    5.1150   -4.0270    0.1660 H   0  0
   -4.2790    0.2770    4.1700 H   0  0
   -0.4670    2.0980    3.3360 H   0  0
   -5.1450    2.4610    4.9750 H   0  0
   -1.3320    4.2790    4.1430 H   0  0
   -3.6720    4.4630    4.9630 H   0  0
  1  2  2  0
  1  3  2  0
  1  4  1  0
  1  5  1  0
  4  6  1  0
  4  7  1  0
  5  8  2  0
  5  9  1  0
  6 10  2  0
  6 11  1  0
  7 12  1  0
  8 13  1  0
  9 14  2  0
 10 15  1  0
 11 16  2  0
 12 17  2  0
 12 18  1  0
 13 19  2  0
 15 20  2  0
 17 21  1  0
 18 22  2  0
 19 23  1  0
 20 24  1  0
 21 25  2  0
 23 26  3  0
 24 27  1  0
 25 28  1  0
 27 29  2  0
 27 30  1  0
 29 31  1  0
 30 32  2  0
 31 33  2  0
 14 19  1  0
 16 20  1  0
 22 25  1  0
 32 33  1  0
  7 34  1  0
  7 35  1  0
  8 36  1  0
  9 37  1  0
 10 38  1  0
 11 39  1  0
 13 40  1  0
 14 41  1  0
 15 42  1  0
 16 43  1  0
 17 44  1  0
 18 45  1  0
 21 46  1  0
 22 47  1  0
 29 48  1  0
 30 49  1  0
 31 50  1  0
 32 51  1  0
 33 52  1  0
M  END
> <Name>
CHEMBL4086504

> <IC50 nM>
30000

> <Molecule_ChEMBL_ID>
CHEMBL4086504

> <Smiles>
N#Cc1ccc(S(=O)(=O)N(Cc2ccc(F)cc2)c2ccc(Oc3ccccc3)cc2)cc1

$$$$
CHEMBL417729
  SciTegic08162514323D

 43 44  0  0  1  0            999 V2000
    1.2130   -5.1100   -3.0450 Br  0  0
    0.5700   -3.4850   -2.3380 C   0  0
    1.3300   -2.2990   -2.4320 C   0  0
   -0.6900   -3.4570   -1.7050 C   0  0
    2.5120   -2.2930   -3.0180 O   0  0
    0.8260   -1.1020   -1.8940 C   0  0
   -1.1920   -2.2600   -1.1680 C   0  0
    3.1930   -1.0530   -3.1350 C   0  0
   -0.4300   -1.0800   -1.2640 C   0  0
   -2.3690   -2.2500   -0.5780 O   0  0
   -0.9470    0.1970   -0.7010 C   0  0
   -0.8070    0.2380    0.8260 C   0  0  1  0  0  0
    0.6480    0.0190    1.1920 C   0  0
   -1.3460    1.5590    1.4320 C   0  0
    1.0760   -1.1500    1.7010 C   0  0
    1.6000    1.1740    0.9650 C   0  0
   -0.4120    2.7340    1.0700 C   0  0
   -2.7580    1.8440    0.9080 C   0  0
   -1.4360    1.4280    2.9590 C   0  0
    1.0350    2.4880    1.5240 C   0  0
   -1.2830   -4.3560   -1.6270 H   0  0
    1.4080   -0.1950   -1.9690 H   0  0
    4.1640   -1.2360   -3.5920 H   0  0
    2.5390   -0.3520   -3.6540 H   0  0
    3.3670   -0.6620   -2.1310 H   0  0
   -2.7310   -1.4140   -0.2560 H   0  0
   -1.9880    0.3280   -0.9960 H   0  0
   -0.4220    1.0350   -1.1580 H   0  0
   -1.4020   -0.5880    1.2250 H   0  0
    0.4820   -2.0270    1.9020 H   0  0
    2.1310   -1.1950    1.9280 H   0  0
    1.7690    1.2790   -0.1070 H   0  0
    2.5720    0.9670    1.4160 H   0  0
   -0.4240    2.8930   -0.0100 H   0  0
   -0.7830    3.6580    1.5160 H   0  0
   -2.7540    2.1050   -0.1500 H   0  0
   -3.2110    2.6720    1.4530 H   0  0
   -3.4010    0.9730    1.0350 H   0  0
   -0.4750    1.1720    3.4020 H   0  0
   -2.1490    0.6500    3.2380 H   0  0
   -1.7720    2.3630    3.4060 H   0  0
    1.0760    2.4670    2.6130 H   0  0
    1.6680    3.3220    1.2130 H   0  0
  1  2  1  0
  2  3  2  0
  2  4  1  0
  3  5  1  0
  3  6  1  0
  4  7  2  0
  5  8  1  0
  6  9  2  0
  7 10  1  0
  9 11  1  0
 12 11  1  0
 12 13  1  0
 12 14  1  0
 13 15  2  0
 13 16  1  0
 14 17  1  0
 14 18  1  0
 14 19  1  0
 16 20  1  0
  7  9  1  0
 17 20  1  0
  4 21  1  0
  6 22  1  0
  8 23  1  0
  8 24  1  0
  8 25  1  0
 10 26  1  0
 11 27  1  0
 11 28  1  0
 12 29  1  0
 15 30  1  0
 15 31  1  0
 16 32  1  0
 16 33  1  0
 17 34  1  0
 17 35  1  0
 18 36  1  0
 18 37  1  0
 18 38  1  0
 19 39  1  0
 19 40  1  0
 19 41  1  0
 20 42  1  0
 20 43  1  0
M  END
> <Name>
CHEMBL417729

> <IC50 nM>
10000

> <Molecule_ChEMBL_ID>
CHEMBL417729

> <Smiles>
C=C1CCCC(C)(C)[C@H]1Cc1cc(OC)c(Br)cc1O

$$$$
CHEMBL342426
  SciTegic08162514323D

 51 55  0  0  0  0            999 V2000
    4.1060   -4.9320   -0.9860 F   0  0
    3.6520   -3.7640   -1.4380 C   0  0
    4.1930   -3.1970   -2.6060 C   0  0
    2.6310   -3.0960   -0.7400 C   0  0
    5.1620   -3.8220   -3.2720 F   0  0
    3.7070   -1.9650   -3.0760 C   0  0
    2.1450   -1.8610   -1.2110 C   0  0
    2.6860   -1.2970   -2.3790 C   0  0
    1.0570   -1.1520   -0.4690 C   0  0
    1.0080    0.1970   -0.3670 C   0  0
    2.0590    0.8650   -0.8670 O   0  0
   -0.1190    0.8980    0.3380 C   0  0
    2.3030    2.1490   -0.5220 C   0  0
   -1.4320    0.3540    0.5470 C   0  0
    0.1860    2.1990    0.8340 C   0  0
    1.4240    2.8690    0.3520 C   0  0
    3.4630    2.7740   -1.0370 C   0  0
   -2.2520    0.9140    1.5700 C   0  0
   -2.0120   -0.7520   -0.2930 C   0  0
   -0.6950    2.8050    1.7710 C   0  0
    1.7620    4.2030    0.7170 C   0  0
    3.7770    4.1020   -0.6740 C   0  0
   -3.3950    0.2950    1.9630 N   0  0
   -1.8750    2.1410    2.1720 C   0  0
   -3.1070   -1.4040    0.1430 C   0  0
   -1.4610   -1.1370   -1.6470 C   0  0
    2.9340    4.8110    0.2070 C   0  0
   -3.7850   -1.0510    1.4530 C   0  0
   -5.3010   -1.0720    1.2340 C   0  0
   -3.4080   -2.1040    2.5000 C   0  0
    2.2190   -3.5330    0.1580 H   0  0
    4.1170   -1.5250   -3.9750 H   0  0
    2.3180   -0.3500   -2.7480 H   0  0
    0.3130   -1.7790   -0.0020 H   0  0
    4.1130    2.2340   -1.7110 H   0  0
   -0.4980    3.7720    2.2090 H   0  0
    1.1480    4.7930    1.3790 H   0  0
    4.6660    4.5720   -1.0660 H   0  0
   -4.0000    0.7340    2.6310 H   0  0
   -2.4880    2.5940    2.9380 H   0  0
   -3.5230   -2.2010   -0.4570 H   0  0
   -2.2790   -1.2700   -2.3540 H   0  0
   -0.7540   -0.3830   -1.9880 H   0  0
   -0.9280   -2.0860   -1.5720 H   0  0
    3.1820    5.8220    0.4900 H   0  0
   -5.6150   -0.3340    0.4960 H   0  0
   -5.8280   -0.8570    2.1640 H   0  0
   -5.6270   -2.0530    0.8870 H   0  0
   -2.3340   -2.1210    2.6880 H   0  0
   -3.7050   -3.0980    2.1700 H   0  0
   -3.9080   -1.9020    3.4470 H   0  0
  1  2  1  0
  2  3  2  0
  2  4  1  0
  3  5  1  0
  3  6  1  0
  4  7  2  0
  6  8  2  0
  7  9  1  0
  9 10  2  0
 10 11  1  0
 10 12  1  0
 11 13  1  0
 12 14  2  0
 12 15  1  0
 13 16  2  0
 13 17  1  0
 14 18  1  0
 14 19  1  0
 15 20  2  0
 16 21  1  0
 17 22  2  0
 18 23  1  0
 18 24  2  0
 19 25  2  0
 19 26  1  0
 21 27  2  0
 23 28  1  0
 28 29  1  0
 28 30  1  0
  7  8  1  0
 15 16  1  0
 20 24  1  0
 22 27  1  0
 25 28  1  0
  4 31  1  0
  6 32  1  0
  8 33  1  0
  9 34  1  0
 17 35  1  0
 20 36  1  0
 21 37  1  0
 22 38  1  0
 23 39  1  0
 24 40  1  0
 25 41  1  0
 26 42  1  0
 26 43  1  0
 26 44  1  0
 27 45  1  0
 29 46  1  0
 29 47  1  0
 29 48  1  0
 30 49  1  0
 30 50  1  0
 30 51  1  0
M  END
> <Name>
CHEMBL342426

> <IC50 nM>
1650

> <Molecule_ChEMBL_ID>
CHEMBL342426

> <Smiles>
CC1=CC(C)(C)Nc2ccc3c(c21)/C(=C/c1ccc(F)c(F)c1)Oc1ccccc1-3

$$$$
CHEMBL1928869
  SciTegic08162514323D

 29 32  0  0  0  0            999 V2000
    3.6430   -2.2560   -0.0590 S   0  0
    4.5200   -0.8240   -0.1910 C   0  0
    1.9510   -1.7440    0.0160 C   0  0
    5.8500   -0.7170   -0.2930 N   0  0
    3.9690    0.4040   -0.2130 N   0  0
    1.6680   -0.2460   -0.0210 C   0  0
    6.1020    0.6020   -0.3770 N   0  0
    2.5720    0.6660   -0.1230 N   0  0
    4.9550    1.3440   -0.3300 C   0  0
    0.2600    0.1930    0.0650 C   0  0
   -0.7770   -0.7700    0.0740 C   0  0
   -0.0430    1.5720    0.1390 C   0  0
   -2.1330   -0.3540    0.1560 C   0  0
   -1.3910    1.9920    0.2190 C   0  0
   -3.1350   -1.2660    0.1840 N   0  0
   -2.4360    1.0390    0.2210 C   0  0
   -4.4550   -0.8850    0.1230 C   0  0
   -3.7150    1.4650    0.2970 O   0  0
   -5.3320   -1.7170    0.1840 O   0  0
   -4.7990    0.5840   -0.0270 C   0  0
    1.4240   -2.2360   -0.8010 H   0  0
    1.5140   -2.1800    0.9140 H   0  0
    4.8560    2.4200   -0.3770 H   0  0
   -0.5310   -1.8200    0.0200 H   0  0
    0.7460    2.3090    0.1350 H   0  0
   -1.6210    3.0470    0.2750 H   0  0
   -2.9220   -2.2420    0.2540 H   0  0
   -5.0860    0.7750   -1.0620 H   0  0
   -5.6520    0.8460    0.6000 H   0  0
  1  2  1  0
  1  3  1  0
  2  4  2  0
  2  5  1  0
  3  6  1  0
  4  7  1  0
  5  8  1  0
  5  9  1  0
  6 10  1  0
 10 11  2  0
 10 12  1  0
 11 13  1  0
 12 14  2  0
 13 15  1  0
 13 16  2  0
 15 17  1  0
 16 18  1  0
 17 19  2  0
 17 20  1  0
  6  8  2  0
  7  9  2  0
 14 16  1  0
 18 20  1  0
  3 21  1  0
  3 22  1  0
  9 23  1  0
 11 24  1  0
 12 25  1  0
 14 26  1  0
 15 27  1  0
 20 28  1  0
 20 29  1  0
M  END
> <Name>
CHEMBL1928869

> <IC50 nM>
10000

> <Molecule_ChEMBL_ID>
CHEMBL1928869

> <Smiles>
O=C1COc2ccc(C3=Nn4cnnc4SC3)cc2N1

$$$$
CHEMBL1928876
  SciTegic08162514323D

 39 43  0  0  1  0            999 V2000
    3.8980   -0.0510    0.5820 S   0  0
    3.8140   -1.7210    0.7810 C   0  0
    2.2150    0.4860    0.5080 C   0  0  2  0  0  0
    4.8500   -2.5680    0.8130 N   0  0
    2.6700   -2.4080    0.9360 N   0  0
    1.1390   -0.5620    0.7910 C   0  0
    2.0450    1.1190   -0.8320 C   0  0
    4.3120   -3.7910    0.9840 N   0  0
    1.3730   -1.8180    0.9670 N   0  0
    2.9490   -3.7400    1.0640 C   0  0
   -0.2700   -0.1230    0.8770 C   0  0
    1.8850    0.3150   -1.9750 C   0  0
    2.0450    2.5200   -0.9530 C   0  0
   -1.3070   -1.0840    0.8870 C   0  0
   -0.5720    1.2560    0.9510 C   0  0
    1.7250    0.9120   -3.2360 C   0  0
    1.8830    3.1150   -2.2170 C   0  0
   -2.6620   -0.6680    0.9670 C   0  0
   -1.9200    1.6760    1.0290 C   0  0
    1.7230    2.3130   -3.3590 C   0  0
   -3.6620   -1.5820    0.9960 N   0  0
   -2.9650    0.7230    1.0330 C   0  0
    1.5720    2.8770   -4.5550 F   0  0
   -4.9850   -1.2010    0.9360 C   0  0
   -4.2420    1.1510    1.1090 O   0  0
   -5.8600   -2.0310    0.9960 O   0  0
   -5.3280    0.2700    0.7850 C   0  0
    2.1110    1.3010    1.2270 H   0  0
    2.2620   -4.5640    1.1990 H   0  0
    1.8850   -0.7620   -1.8870 H   0  0
    2.1660    3.1430   -0.0800 H   0  0
   -1.0590   -2.1370    0.8320 H   0  0
    0.2190    1.9920    0.9470 H   0  0
    1.6010    0.2890   -4.1110 H   0  0
    1.8850    4.1940   -2.3050 H   0  0
   -2.1490    2.7310    1.0880 H   0  0
   -3.4490   -2.5590    1.0640 H   0  0
   -5.6130    0.4590   -0.2500 H   0  0
   -6.1820    0.5290    1.4100 H   0  0
  1  2  1  0
  1  3  1  0
  2  4  2  0
  2  5  1  0
  3  6  1  0
  3  7  1  0
  4  8  1  0
  5  9  1  0
  5 10  1  0
  6 11  1  0
  7 12  2  0
  7 13  1  0
 11 14  2  0
 11 15  1  0
 12 16  1  0
 13 17  2  0
 14 18  1  0
 15 19  2  0
 16 20  2  0
 18 21  1  0
 18 22  2  0
 20 23  1  0
 21 24  1  0
 22 25  1  0
 24 26  2  0
 24 27  1  0
  6  9  2  0
  8 10  2  0
 17 20  1  0
 19 22  1  0
 25 27  1  0
  3 28  1  0
 10 29  1  0
 12 30  1  0
 13 31  1  0
 14 32  1  0
 15 33  1  0
 16 34  1  0
 17 35  1  0
 19 36  1  0
 21 37  1  0
 27 38  1  0
 27 39  1  0
M  END
> <Name>
CHEMBL1928876

> <IC50 nM>
10000

> <Molecule_ChEMBL_ID>
CHEMBL1928876

> <Smiles>
O=C1COc2ccc(C3=Nn4cnnc4SC3c3ccc(F)cc3)cc2N1

$$$$
CHEMBL1928878
  SciTegic08162514323D

 43 47  0  0  1  0            999 V2000
    3.2150   -0.7750    0.9510 S   0  0
    2.4960   -2.1540    1.6230 C   0  0
    1.9240    0.2770    0.3890 C   0  0  2  0  0  0
    1.0880   -2.2440    1.7360 C   0  0
    3.3730   -3.1740    2.0490 C   0  0
    0.5180   -0.1600    0.7580 C   0  0
    2.1090    0.4140   -1.0820 C   0  0
    0.2400   -1.2740    1.3400 N   0  0
    0.5530   -3.4260    2.3110 C   0  0
    2.8140   -4.3420    2.6170 C   0  0
   -0.6110    0.7400    0.4430 C   0  0
    2.6950    1.5780   -1.6130 C   0  0
    1.6970   -0.6190   -1.9430 C   0  0
    1.4080   -4.4690    2.7480 C   0  0
   -1.9380    0.2520    0.5060 C   0  0
   -0.3590    2.0840    0.0800 C   0  0
    2.8690    1.7070   -3.0020 C   0  0
    1.8710   -0.4900   -3.3320 C   0  0
   -3.0270    1.1130    0.2090 C   0  0
   -1.4390    2.9450   -0.2130 C   0  0
    2.4570    0.6740   -3.8610 C   0  0
   -4.3010    0.6540    0.2440 N   0  0
   -2.7700    2.4710   -0.1410 C   0  0
   -5.3750    1.5060    0.1150 C   0  0
   -3.7850    3.3140   -0.4200 O   0  0
   -6.5040    1.0700    0.1110 O   0  0
   -5.1250    2.9960   -0.0160 C   0  0
    2.1130    1.2680    0.8050 H   0  0
    4.4430   -3.0680    1.9470 H   0  0
   -0.5160   -3.5530    2.4240 H   0  0
    3.4610   -5.1390    2.9550 H   0  0
    3.0140    2.3750   -0.9570 H   0  0
    1.2460   -1.5160   -1.5410 H   0  0
    0.9880   -5.3630    3.1840 H   0  0
   -2.1130   -0.7790    0.7810 H   0  0
    0.6520    2.4570    0.0270 H   0  0
    3.3200    2.6000   -3.4080 H   0  0
    1.5550   -1.2830   -3.9920 H   0  0
   -1.2460    3.9710   -0.4920 H   0  0
    2.5900    0.7730   -4.9280 H   0  0
   -4.4810   -0.3240    0.3610 H   0  0
   -5.8180    3.4450   -0.7270 H   0  0
   -5.3030    3.4690    0.9510 H   0  0
  1  2  1  0
  1  3  1  0
  2  4  2  0
  2  5  1  0
  3  6  1  0
  3  7  1  0
  4  8  1  0
  4  9  1  0
  5 10  2  0
  6 11  1  0
  7 12  2  0
  7 13  1  0
  9 14  2  0
 11 15  2  0
 11 16  1  0
 12 17  1  0
 13 18  2  0
 15 19  1  0
 16 20  2  0
 17 21  2  0
 19 22  1  0
 19 23  2  0
 22 24  1  0
 23 25  1  0
 24 26  2  0
 24 27  1  0
  6  8  2  0
 10 14  1  0
 18 21  1  0
 20 23  1  0
 25 27  1  0
  3 28  1  0
  5 29  1  0
  9 30  1  0
 10 31  1  0
 12 32  1  0
 13 33  1  0
 14 34  1  0
 15 35  1  0
 16 36  1  0
 17 37  1  0
 18 38  1  0
 20 39  1  0
 21 40  1  0
 22 41  1  0
 27 42  1  0
 27 43  1  0
M  END
> <Name>
CHEMBL1928878

> <IC50 nM>
950

> <Molecule_ChEMBL_ID>
CHEMBL1928878

> <Smiles>
O=C1COc2ccc(C3=Nc4ccccc4SC3c3ccccc3)cc2N1

$$$$
CHEMBL190109
  SciTegic08162514323D

 69 72  0  0  0  0            999 V2000
   -6.4880    0.0780   -3.0410 Cl  0  0
   -5.3200   -0.9080   -2.2580 C   0  0
   -5.4790   -2.3090   -2.1990 C   0  0
   -4.1920   -0.3050   -1.6700 C   0  0
   -6.5280   -2.8940   -2.7400 O   0  0
   -4.5040   -3.0920   -1.5570 C   0  0
   -3.2250   -1.0960   -1.0270 C   0  0
   -7.8170   -2.4570   -2.3400 C   0  0
   -3.3770   -2.4900   -0.9690 C   0  0
   -8.7740   -3.6190   -2.3670 C   0  0
   -2.4690   -3.2320   -0.3670 O   0  0
   -8.4030   -4.7230   -2.6950 O   0  0
  -10.0220   -3.3340   -2.0100 O   0  0
   -1.2270   -2.7910   -0.3460 C   0  0
   -0.5180   -2.7320    0.8670 C   0  0
   -0.6040   -2.3790   -1.5370 C   0  0
    0.8070   -2.2640    0.8910 C   0  0
    0.7210   -1.9080   -1.5160 C   0  0
    1.4280   -1.8520   -0.3010 C   0  0
    2.8280   -1.3550   -0.2750 C   0  0
    2.8810    0.1130   -0.2600 N   0  0
    2.8690    0.7890    0.9360 C   0  0
    2.9470    0.8380   -1.5370 C   0  0
    1.7360    1.5270    1.3500 C   0  0
    4.0120    0.7360    1.7560 C   0  0
    4.1270    1.7420   -1.5940 C   0  0
    1.7620    2.2110    2.5900 C   0  0
    0.5180    1.5880    0.4840 C   0  0
    4.0310    1.4140    2.9840 C   0  0
    3.9730    3.1330   -1.4160 C   0  0
    5.4060    1.2050   -1.8260 C   0  0
    0.6840    2.9380    3.0270 N   0  0
    2.9120    2.1490    3.4000 C   0  0
    2.7680    3.6560   -1.1990 F   0  0
    5.0980    3.9750   -1.4690 C   0  0
    6.5270    2.0490   -1.8790 C   0  0
    0.0000    2.5960    4.4550 S   0  0
    6.3730    3.4340   -1.6990 C   0  0
    0.5700    3.5000    5.4400 O   0  0
   -1.4360    2.7480    4.3010 O   0  0
    0.3530    0.9140    4.9470 C   0  0
    7.4380    4.2350   -1.7460 F   0  0
   -4.0570    0.7660   -1.7050 H   0  0
   -4.6230   -4.1660   -1.5120 H   0  0
   -2.3610   -0.6270   -0.5760 H   0  0
   -8.1490   -1.6890   -3.0390 H   0  0
   -7.7440   -2.0600   -1.3280 H   0  0
  -10.6860   -4.0350   -2.0060 H   0  0
   -0.9920   -3.0490    1.7850 H   0  0
   -1.1410   -2.4200   -2.4730 H   0  0
    1.3440   -2.2230    1.8280 H   0  0
    1.1930   -1.5920   -2.4340 H   0  0
    3.3360   -1.7420    0.6070 H   0  0
    3.3590   -1.7230   -1.1540 H   0  0
    2.0350    1.4220   -1.6660 H   0  0
    3.0020    0.1190   -2.3550 H   0  0
    4.8870    0.1760    1.4550 H   0  0
    0.5190    0.7440   -0.2070 H   0  0
   -0.3730    1.6170    1.1110 H   0  0
    0.5390    2.5040   -0.1090 H   0  0
    4.9100    1.3690    3.6090 H   0  0
    5.5310    0.1410   -1.9650 H   0  0
    0.3180    3.6780    2.4630 H   0  0
    2.9490    2.6620    4.3520 H   0  0
    4.9790    5.0410   -1.3320 H   0  0
    7.5060    1.6290   -2.0590 H   0  0
   -0.1990    0.5780    5.8260 H   0  0
    1.4160    0.8130    5.1640 H   0  0
    0.1150    0.2360    4.1270 H   0  0
  1  2  1  0
  2  3  2  0
  2  4  1  0
  3  5  1  0
  3  6  1  0
  4  7  2  0
  5  8  1  0
  6  9  2  0
  8 10  1  0
  9 11  1  0
 10 12  2  0
 10 13  1  0
 11 14  1  0
 14 15  2  0
 14 16  1  0
 15 17  1  0
 16 18  2  0
 17 19  2  0
 19 20  1  0
 20 21  1  0
 21 22  1  0
 21 23  1  0
 22 24  2  0
 22 25  1  0
 23 26  1  0
 24 27  1  0
 24 28  1  0
 25 29  2  0
 26 30  2  0
 26 31  1  0
 27 32  1  0
 27 33  2  0
 30 34  1  0
 30 35  1  0
 31 36  2  0
 32 37  1  0
 35 38  2  0
 37 39  2  0
 37 40  2  0
 37 41  1  0
 38 42  1  0
  7  9  1  0
 18 19  1  0
 29 33  1  0
 36 38  1  0
  4 43  1  0
  6 44  1  0
  7 45  1  0
  8 46  1  0
  8 47  1  0
 13 48  1  0
 15 49  1  0
 16 50  1  0
 17 51  1  0
 18 52  1  0
 20 53  1  0
 20 54  1  0
 23 55  1  0
 23 56  1  0
 25 57  1  0
 28 58  1  0
 28 59  1  0
 28 60  1  0
 29 61  1  0
 31 62  1  0
 32 63  1  0
 33 64  1  0
 35 65  1  0
 36 66  1  0
 41 67  1  0
 41 68  1  0
 41 69  1  0
M  END
> <Name>
CHEMBL190109

> <IC50 nM>
2.6

> <Molecule_ChEMBL_ID>
CHEMBL190109

> <Smiles>
Cc1c(NS(C)(=O)=O)cccc1N(Cc1ccc(Oc2ccc(Cl)c(OCC(=O)O)c2)cc1)Cc1ccc(F)cc1F

$$$$
CHEMBL457242
  SciTegic08162514323D

 46 48  0  0  1  0            999 V2000
   -4.4770   -1.3480   -3.0510 O   0  0
   -3.4420   -0.8550   -2.3550 C   0  0
   -3.4220   -0.9530   -0.9510 C   0  0
   -2.3670   -0.2400   -3.0250 C   0  0
   -2.3400   -0.4260   -0.2010 C   0  0
   -1.2890    0.3010   -2.2950 C   0  0
   -1.2640    0.2560   -0.8690 C   0  0
   -2.3770   -0.6230    1.2790 C   0  0
   -0.1880    0.8890   -0.0140 C   0  0  2  0  0  0
   -1.0980   -0.2460    2.0570 C   0  0
    1.1990    1.3260   -0.6310 C   0  0  2  0  0  0
    0.1130   -0.1350    1.1270 C   0  0  2  0  0  0
   -0.8050    2.1800    0.5570 C   0  0
    1.1600    1.9840   -1.8790 O   0  0
    2.2680    0.2210   -0.5980 C   0  0
    1.4450    0.1330    1.8480 C   0  0
   -1.1900    3.1820   -0.5330 C   0  0
    2.6460   -0.1010    0.8790 C   0  0  2  0  0  0
    3.6890    0.7700    1.2750 O   0  0
    3.1500   -1.4770    0.9880 C   0  0
    3.5530   -2.5920    1.0740 C   0  0
    4.0510   -3.9610    1.1780 C   0  0
   -5.2110   -1.7600   -2.5780 H   0  0
   -4.2440   -1.4390   -0.4450 H   0  0
   -2.3710   -0.1800   -4.1040 H   0  0
   -0.5160    0.7360   -2.8950 H   0  0
   -3.2310   -0.0860    1.6950 H   0  0
   -2.5740   -1.6800    1.4650 H   0  0
   -1.2500    0.6930    2.5880 H   0  0
   -0.9080   -0.9880    2.8320 H   0  0
    1.6000    2.1150    0.0080 H   0  0
    0.2420   -1.1270    0.6880 H   0  0
   -1.6620    1.9510    1.1900 H   0  0
   -0.1350    2.6410    1.2830 H   0  0
    0.2380    2.2400   -2.0390 H   0  0
    3.1520    0.5040   -1.1720 H   0  0
    1.8530   -0.6540   -1.1030 H   0  0
    1.5290   -0.4840    2.7440 H   0  0
    1.4240    1.1620    2.2130 H   0  0
   -1.9100    3.9060   -0.1540 H   0  0
   -0.3090    3.7130   -0.8960 H   0  0
   -1.6450    2.6720   -1.3830 H   0  0
    4.3730    0.7270    0.5900 H   0  0
    4.8280   -4.0270    1.9400 H   0  0
    3.2400   -4.6370    1.4490 H   0  0
    4.4690   -4.2850    0.2250 H   0  0
  1  2  1  0
  2  3  2  0
  2  4  1  0
  3  5  1  0
  4  6  2  0
  5  7  2  0
  5  8  1  0
  7  9  1  0
  8 10  1  0
  9 11  1  0
  9 12  1  0
  9 13  1  0
 11 14  1  0
 11 15  1  0
 12 16  1  0
 13 17  1  0
 15 18  1  0
 18 19  1  0
 18 20  1  0
 20 21  3  0
 21 22  1  0
  6  7  1  0
 10 12  1  0
 16 18  1  0
  1 23  1  0
  3 24  1  0
  4 25  1  0
  6 26  1  0
  8 27  1  0
  8 28  1  0
 10 29  1  0
 10 30  1  0
 11 31  1  0
 12 32  1  0
 13 33  1  0
 13 34  1  0
 14 35  1  0
 15 36  1  0
 15 37  1  0
 16 38  1  0
 16 39  1  0
 17 40  1  0
 17 41  1  0
 17 42  1  0
 19 43  1  0
 22 44  1  0
 22 45  1  0
 22 46  1  0
M  END
> <Name>
CHEMBL457242

> <IC50 nM>
360

> <Molecule_ChEMBL_ID>
CHEMBL457242

> <Smiles>
CC#C[C@]1(O)C[C@H]2CCc3cc(O)ccc3[C@]2(CC)[C@H](O)C1

$$$$
CHEMBL470785
  SciTegic08162514323D

 46 48  0  0  1  0            999 V2000
   -4.5920   -0.3590   -3.2440 O   0  0
   -3.4860   -0.1370   -2.5180 C   0  0
   -3.5570   -0.1410   -1.1070 C   0  0
   -2.2520    0.1040   -3.1540 C   0  0
   -2.3910    0.0650   -0.3200 C   0  0
   -1.0900    0.3260   -2.3850 C   0  0
   -1.1290    0.2930   -0.9610 C   0  0
   -2.5350    0.0290    1.1600 C   0  0
    0.1270    0.5080   -0.1600 C   0  0  1  0  0  0
   -1.3090    0.5250    1.9320 C   0  0
   -0.0310   -0.0310    1.2910 C   0  0  2  0  0  0
    1.3750   -0.1930   -0.7750 C   0  0
    0.3830    2.0270   -0.1270 C   0  0
    1.2250    0.2170    2.1580 C   0  0
    2.6580    0.0040    0.0660 C   0  0
    0.6430    2.5960   -1.4980 C   0  0
    2.4880   -0.4260    1.5390 C   0  0  1  0  0  0
   -0.2270    3.4900   -1.9960 C   0  0
    3.6110    0.0310    2.2600 O   0  0
    2.4390   -1.8870    1.6480 C   0  0
    2.4040   -3.0720    1.7380 C   0  0
    2.3710   -4.5270    1.8340 C   0  0
   -5.4300   -0.5230   -2.7930 H   0  0
   -4.5080   -0.3070   -0.6230 H   0  0
   -2.1950    0.1170   -4.2340 H   0  0
   -0.1680    0.5250   -2.9060 H   0  0
   -3.4080    0.6110    1.4630 H   0  0
   -2.7420   -1.0020    1.4490 H   0  0
   -1.2770    1.6110    1.9360 H   0  0
   -1.3850    0.2110    2.9710 H   0  0
   -0.1620   -1.1150    1.2460 H   0  0
    1.1950   -1.2640   -0.9060 H   0  0
    1.5880    0.1910   -1.7730 H   0  0
    1.2580    2.1720    0.5040 H   0  0
   -0.4530    2.5490    0.3380 H   0  0
    1.3610    1.2930    2.2660 H   0  0
    1.0550   -0.1580    3.1700 H   0  0
    3.4920   -0.5210   -0.4060 H   0  0
    2.9240    1.0610    0.0210 H   0  0
    1.4770    2.3540   -2.1410 H   0  0
   -0.1740    3.9830   -2.9550 H   0  0
   -1.0610    3.7330   -1.3540 H   0  0
    4.4000   -0.2600    1.7750 H   0  0
    3.3570   -4.9360    1.6210 H   0  0
    2.0720   -4.8340    2.8360 H   0  0
    1.6600   -4.9360    1.1150 H   0  0
  1  2  1  0
  2  3  2  0
  2  4  1  0
  3  5  1  0
  4  6  2  0
  5  7  2  0
  5  8  1  0
  7  9  1  0
  8 10  1  0
  9 11  1  0
  9 12  1  0
  9 13  1  0
 11 14  1  0
 12 15  1  0
 13 16  1  0
 14 17  1  0
 16 18  2  0
 17 19  1  0
 17 20  1  0
 20 21  3  0
 21 22  1  0
  6  7  1  0
 10 11  1  0
 15 17  1  0
  1 23  1  0
  3 24  1  0
  4 25  1  0
  6 26  1  0
  8 27  1  0
  8 28  1  0
 10 29  1  0
 10 30  1  0
 11 31  1  0
 12 32  1  0
 12 33  1  0
 13 34  1  0
 13 35  1  0
 14 36  1  0
 14 37  1  0
 15 38  1  0
 15 39  1  0
 16 40  1  0
 18 41  1  0
 18 42  1  0
 19 43  1  0
 22 44  1  0
 22 45  1  0
 22 46  1  0
M  END
> <Name>
CHEMBL470785

> <IC50 nM>
34

> <Molecule_ChEMBL_ID>
CHEMBL470785

> <Smiles>
C=CC[C@@]12CC[C@](O)(C#CC)C[C@H]1CCc1cc(O)ccc12

$$$$
CHEMBL469944
  SciTegic08162514323D

 50 53  0  0  1  0            999 V2000
   -5.0920    1.6970    2.4590 O   0  0
   -4.0140    1.0450    2.0060 C   0  0
   -3.9610    0.6130    0.6620 C   0  0
   -2.9300    0.7850    2.8710 C   0  0
   -2.8220   -0.0760    0.1720 C   0  0
   -1.7910    0.0980    2.3950 C   0  0
   -1.7170   -0.3400    1.0410 C   0  0
   -2.8030   -0.5210   -1.2520 C   0  0
   -0.5310   -1.0620    0.4710 C   0  0  1  0  0  0
   -1.3970   -0.6720   -1.8930 C   0  0
   -0.2460   -0.4000   -0.9100 C   0  0  2  0  0  0
    0.7790   -1.0780    1.3340 C   0  0
   -0.9470   -2.5350    0.2850 C   0  0
    1.1460   -0.7520   -1.4550 C   0  0
    1.8260   -0.0190    0.9410 C   0  0  1  0  0  0
   -1.2290   -3.2400    1.6110 C   0  0
    2.2790   -0.2170   -0.5370 C   0  0  2  0  0  0
    1.2790    1.2660    1.1890 O   0  0
    2.9730    0.9750   -1.1150 C   0  0
    2.2250    1.9850   -1.7500 C   0  0
    4.3710    1.0880   -1.0250 C   0  0
    2.8770    3.1060   -2.2930 C   0  0
    5.0220    2.2090   -1.5680 C   0  0
    4.2750    3.2190   -2.2030 C   0  0
   -5.8280    1.8690    1.8590 H   0  0
   -4.7970    0.8150    0.0080 H   0  0
   -2.9690    1.1110    3.9000 H   0  0
   -0.9960   -0.0720    3.1020 H   0  0
   -3.3930    0.1620   -1.8650 H   0  0
   -3.3200   -1.4800   -1.3030 H   0  0
   -1.2990   -1.6800   -2.3010 H   0  0
   -1.3070    0.0000   -2.7460 H   0  0
   -0.2320    0.6860   -0.7890 H   0  0
    0.6070   -1.0840    2.4080 H   0  0
    1.2810   -2.0330    1.1740 H   0  0
   -1.8050   -2.6110   -0.3830 H   0  0
   -0.1950   -3.0780   -0.2890 H   0  0
    1.2210   -1.8380   -1.5230 H   0  0
    1.2540   -0.3890   -2.4810 H   0  0
    2.6930   -0.1050    1.5980 H   0  0
   -1.5410   -4.2710    1.4390 H   0  0
   -0.3400   -3.2400    2.2440 H   0  0
   -2.0250   -2.7360    2.1540 H   0  0
    3.0410   -0.9980   -0.5250 H   0  0
    1.1000    1.3220    2.1430 H   0  0
    1.1500    1.9040   -1.8220 H   0  0
    4.9510    0.3170   -0.5390 H   0  0
    2.3050    3.8790   -2.7790 H   0  0
    6.0960    2.2970   -1.4980 H   0  0
    4.7750    4.0800   -2.6190 H   0  0
  1  2  1  0
  2  3  2  0
  2  4  1  0
  3  5  1  0
  4  6  2  0
  5  7  2  0
  5  8  1  0
  7  9  1  0
  8 10  1  0
  9 11  1  0
  9 12  1  0
  9 13  1  0
 11 14  1  0
 12 15  1  0
 13 16  1  0
 14 17  1  0
 15 18  1  0
 17 19  1  0
 19 20  2  0
 19 21  1  0
 20 22  1  0
 21 23  2  0
 22 24  2  0
  6  7  1  0
 10 11  1  0
 15 17  1  0
 23 24  1  0
  1 25  1  0
  3 26  1  0
  4 27  1  0
  6 28  1  0
  8 29  1  0
  8 30  1  0
 10 31  1  0
 10 32  1  0
 11 33  1  0
 12 34  1  0
 12 35  1  0
 13 36  1  0
 13 37  1  0
 14 38  1  0
 14 39  1  0
 15 40  1  0
 16 41  1  0
 16 42  1  0
 16 43  1  0
 17 44  1  0
 18 45  1  0
 20 46  1  0
 21 47  1  0
 22 48  1  0
 23 49  1  0
 24 50  1  0
M  END
> <Name>
CHEMBL469944

> <IC50 nM>
1100

> <Molecule_ChEMBL_ID>
CHEMBL469944

> <Smiles>
CC[C@@]12C[C@H](O)[C@H](c3ccccc3)C[C@H]1CCc1cc(O)ccc12

$$$$
CHEMBL10560
  SciTegic08162514323D

 45 47  0  0  1  0            999 V2000
   -4.6800   -0.4980   -3.0640 O   0  0
   -3.6330   -0.2600   -2.2660 C   0  0
   -3.4240   -1.0590   -1.1190 C   0  0
   -2.7380    0.7910   -2.5660 C   0  0
   -2.3160   -0.8090   -0.2710 C   0  0
   -1.6330    1.0470   -1.7230 C   0  0
   -1.4060    0.2460   -0.5660 C   0  0
   -2.0980   -1.6370    0.9400 C   0  0
   -0.2500    0.4610    0.3610 C   0  0  1  0  0  0
   -0.6130   -1.9780    1.1800 C   0  0
    0.3990   -0.9240    0.6620 C   0  0  2  0  0  0
    0.8420    1.4080   -0.2090 C   0  0
   -0.7930    1.0840    1.6560 C   0  0
    1.6290   -0.8140    1.5880 C   0  0
    2.0650    1.5370    0.7190 C   0  0
   -1.7930    2.2110    1.3950 C   0  0
    2.6970    0.1680    1.0570 C   0  0  1  0  0  0
    3.6580    0.3650    2.0720 O   0  0
    3.3850   -0.3890   -0.1150 C   0  0
    3.9360   -0.8420   -1.0680 C   0  0
    4.6040   -1.3960   -2.2400 C   0  0
   -5.2850   -1.2190   -2.8480 H   0  0
   -4.1130   -1.8590   -0.8940 H   0  0
   -2.8980    1.4000   -3.4430 H   0  0
   -0.9750    1.8610   -1.9800 H   0  0
   -2.4860   -1.0760    1.7930 H   0  0
   -2.6820   -2.5570    0.9020 H   0  0
   -0.3870   -2.9320    0.6990 H   0  0
   -0.4750   -2.1520    2.2480 H   0  0
    0.7660   -1.3100   -0.2930 H   0  0
    0.4320    2.4080   -0.3690 H   0  0
    1.1800    1.0590   -1.1850 H   0  0
   -1.2320    0.3200    2.2970 H   0  0
    0.0240    1.4340    2.2870 H   0  0
    2.0610   -1.8050    1.7420 H   0  0
    1.2870   -0.4840    2.5720 H   0  0
    2.7970    2.2090    0.2700 H   0  0
    1.7440    2.0290    1.6410 H   0  0
   -2.0780    2.6970    2.3260 H   0  0
   -1.3650    2.9550    0.7210 H   0  0
   -2.6990    1.8220    0.9300 H   0  0
    4.2210    1.1060    1.7950 H   0  0
    3.9080   -2.0120   -2.8120 H   0  0
    5.4490   -2.0160   -1.9370 H   0  0
    4.9690   -0.5960   -2.8830 H   0  0
  1  2  1  0
  2  3  2  0
  2  4  1  0
  3  5  1  0
  4  6  2  0
  5  7  2  0
  5  8  1  0
  7  9  1  0
  8 10  1  0
  9 11  1  0
  9 12  1  0
  9 13  1  0
 11 14  1  0
 12 15  1  0
 13 16  1  0
 14 17  1  0
 17 18  1  0
 17 19  1  0
 19 20  3  0
 20 21  1  0
  6  7  1  0
 10 11  1  0
 15 17  1  0
  1 22  1  0
  3 23  1  0
  4 24  1  0
  6 25  1  0
  8 26  1  0
  8 27  1  0
 10 28  1  0
 10 29  1  0
 11 30  1  0
 12 31  1  0
 12 32  1  0
 13 33  1  0
 13 34  1  0
 14 35  1  0
 14 36  1  0
 15 37  1  0
 15 38  1  0
 16 39  1  0
 16 40  1  0
 16 41  1  0
 18 42  1  0
 21 43  1  0
 21 44  1  0
 21 45  1  0
M  END
> <Name>
CHEMBL10560

> <IC50 nM>
5.6

> <Molecule_ChEMBL_ID>
CHEMBL10560

> <Smiles>
CC#C[C@@]1(O)CC[C@@]2(CC)c3ccc(O)cc3CC[C@@H]2C1

$$$$
CHEMBL3927299
  SciTegic08162514323D

 71 75  0  0  1  0            999 V2000
    5.9360    1.7770   -0.4410 O   0  0
    4.8340    2.2280   -0.2230 C   0  0
    4.6800    3.5510    0.0820 N   0  0
    3.5330    1.5330   -0.2300 C   0  0
    5.7750    4.3750    0.1410 C   0  0
    3.4080    0.2660    0.3810 C   0  0
    2.4200    2.1410   -0.8440 C   0  0
    5.9140    5.3520    1.1560 C   0  0
    6.7870    4.2500   -0.8320 C   0  0
    2.1640   -0.4120    0.3770 C   0  0
    1.1740    1.4730   -0.8460 C   0  0
    7.0080    6.1660    1.2070 N   0  0
    4.8730    5.5250    2.2090 C   0  0
    7.9060    5.0980   -0.7660 C   0  0
    1.0250    0.1870   -0.2520 C   0  0
    2.0860   -1.7480    1.0290 C   0  0
    7.9900    6.0490    0.2680 C   0  0
   -0.3070   -0.5080   -0.2720 C   0  0  1  0  0  0
    0.6580   -2.2400    1.2910 C   0  0
   -1.1780   -0.2620   -1.5430 C   0  0  1  0  0  0
   -0.1950   -2.0220    0.0410 C   0  0  1  0  0  0
   -0.4880   -0.6720   -2.7130 O   0  0
   -2.5450   -0.9810   -1.4610 C   0  0
   -1.6170   -2.5900    0.2010 C   0  0  1  0  0  0
   -2.4200   -2.4790   -1.1060 C   0  0  1  0  0  0
   -1.7250   -4.0820    0.5080 C   0  0
   -3.7010   -3.2660   -0.7130 C   0  0  2  0  0  0
   -1.6950   -3.2400   -2.2320 C   0  0
   -3.1700   -4.4360    0.1410 C   0  0
   -4.3850   -3.7540   -1.8590 O   0  0
   -4.6680   -2.4470    0.0430 C   0  0
   -5.4530   -1.7810    0.6410 C   0  0
   -6.4240   -0.9590    1.3540 C   0  0
   -6.4080    0.4610    0.7890 C   0  0
   -7.8090   -1.5940    1.2540 C   0  0
    3.7680    3.9180    0.2620 H   0  0
    4.2660   -0.1950    0.8520 H   0  0
    2.5040    3.1110   -1.3130 H   0  0
    6.7210    3.5180   -1.6250 H   0  0
    0.3380    1.9690   -1.3160 H   0  0
    5.1210    6.2720    2.9650 H   0  0
    4.7070    4.5760    2.7190 H   0  0
    3.9340    5.8220    1.7440 H   0  0
    8.6930    5.0200   -1.5000 H   0  0
    2.6390   -1.7380    1.9710 H   0  0
    2.5940   -2.4650    0.3830 H   0  0
    8.8480    6.7010    0.3200 H   0  0
   -0.8610   -0.0590    0.5550 H   0  0
    0.6840   -3.2930    1.5680 H   0  0
    0.2250   -1.7070    2.1410 H   0  0
   -1.3870    0.7990   -1.6720 H   0  0
    0.2970   -2.5310   -0.7850 H   0  0
    0.1390    0.0330   -2.9360 H   0  0
   -3.1230   -0.4610   -0.6950 H   0  0
   -3.1070   -0.8540   -2.3850 H   0  0
   -2.1110   -2.0470    0.9980 H   0  0
   -1.0330   -4.6450   -0.1050 H   0  0
   -1.4960   -4.3110    1.5390 H   0  0
   -0.6540   -2.9360   -2.3220 H   0  0
   -2.1820   -3.0610   -3.1910 H   0  0
   -1.7150   -4.3150   -2.0430 H   0  0
   -3.7500   -4.5940    1.0370 H   0  0
   -3.1800   -5.3770   -0.3890 H   0  0
   -5.0310   -4.4060   -1.5490 H   0  0
   -6.1210   -0.9240    2.4000 H   0  0
   -5.4260    0.9260    0.8810 H   0  0
   -7.1250    1.0920    1.3140 H   0  0
   -6.6780    0.4590   -0.2680 H   0  0
   -7.8050   -2.5980    1.6760 H   0  0
   -8.5490   -0.9880    1.7790 H   0  0
   -8.1230   -1.6700    0.2130 H   0  0
  1  2  2  0
  2  3  1  0
  2  4  1  0
  3  5  1  0
  4  6  2  0
  4  7  1  0
  5  8  2  0
  5  9  1  0
  6 10  1  0
  7 11  2  0
  8 12  1  0
  8 13  1  0
  9 14  2  0
 10 15  2  0
 10 16  1  0
 12 17  2  0
 18 15  1  0
 16 19  1  0
 18 20  1  0
 18 21  1  0
 20 22  1  0
 20 23  1  0
 21 24  1  0
 23 25  1  0
 24 26  1  0
 25 27  1  0
 25 28  1  0
 26 29  1  0
 27 30  1  0
 27 31  1  0
 31 32  3  0
 32 33  1  0
 33 34  1  0
 33 35  1  0
 11 15  1  0
 14 17  1  0
 21 19  1  0
 24 25  1  0
 27 29  1  0
  3 36  1  0
  6 37  1  0
  7 38  1  0
  9 39  1  0
 11 40  1  0
 13 41  1  0
 13 42  1  0
 13 43  1  0
 14 44  1  0
 16 45  1  0
 16 46  1  0
 17 47  1  0
 18 48  1  0
 19 49  1  0
 19 50  1  0
 20 51  1  0
 21 52  1  0
 22 53  1  0
 23 54  1  0
 23 55  1  0
 24 56  1  0
 26 57  1  0
 26 58  1  0
 28 59  1  0
 28 60  1  0
 28 61  1  0
 29 62  1  0
 29 63  1  0
 30 64  1  0
 33 65  1  0
 34 66  1  0
 34 67  1  0
 34 68  1  0
 35 69  1  0
 35 70  1  0
 35 71  1  0
M  END
> <Name>
CHEMBL3927299

> <IC50 nM>
37

> <Molecule_ChEMBL_ID>
CHEMBL3927299

> <Smiles>
Cc1ncccc1NC(=O)c1ccc2c(c1)CC[C@@H]1[C@@H]2[C@@H](O)C[C@@]2(C)[C@H]1CC[C@@]2(O)C#CC(C)C

$$$$
CHEMBL238147
  SciTegic08162514323D

 61 64  0  0  1  0            999 V2000
   -2.2070    1.7050   -2.9470 F   0  0
   -1.2580    1.8590   -1.9730 C   0  0
   -0.0120    1.8770   -2.5470 F   0  0
   -1.4710    3.0370   -1.3070 F   0  0
   -1.3460    0.6930   -0.9860 C   0  0  3  0  0  0
   -2.5490    0.8180   -0.2640 O   0  0
   -0.1880    0.6760    0.0120 C   0  0
   -1.4220   -0.5820   -1.8240 C   0  0
   -0.4670    1.5530    1.1580 N   0  0
   -1.5660   -1.8500   -0.9670 C   0  0  3  0  0  0
    0.5430    1.9920    1.9320 C   0  0
   -0.2910   -2.6390   -0.9670 C   0  0
   -2.7640   -2.6540   -1.5200 C   0  0
   -1.8690   -1.4240    0.4770 C   0  0
    1.5200    2.9380    1.4770 C   0  0
    0.6410    1.4920    3.2560 C   0  0
   -0.2830   -4.0610   -1.1350 C   0  0
    0.9450   -1.9610   -0.7830 C   0  0
   -2.8070   -4.0680   -0.9390 C   0  0
   -3.3360   -1.6330    0.8570 C   0  0
    2.5740    3.3630    2.3560 C   0  0
    1.4800    3.4840    0.1560 C   0  0
    1.6760    1.9120    4.1170 C   0  0
    0.9490   -4.7620   -1.1250 C   0  0
   -1.5370   -4.8360   -1.3260 C   0  0
    2.1680   -2.6720   -0.7790 C   0  0
    3.5230    4.2750    1.9340 N   0  0
    2.6370    2.8420    3.6700 C   0  0
    2.4670    4.4160   -0.2520 C   0  0
    2.1700   -4.0700   -0.9510 C   0  0
    3.4800    4.7970    0.6580 C   0  0
    4.5060    5.7640    0.2420 C   0  0
   -3.1350    0.1040   -0.5590 H   0  0
    0.7380    0.9960   -0.4670 H   0  0
   -0.0040   -0.3360    0.3710 H   0  0
   -2.2290   -0.5180   -2.5550 H   0  0
   -0.5590   -0.6620   -2.4840 H   0  0
   -1.4080    1.8220    1.3630 H   0  0
   -3.6990   -2.1350   -1.3070 H   0  0
   -2.6990   -2.7250   -2.6070 H   0  0
   -1.2130   -1.9410    1.1780 H   0  0
   -1.5700   -0.3890    0.6450 H   0  0
   -0.0800    0.7770    3.6330 H   0  0
    0.9670   -0.8910   -0.6450 H   0  0
   -3.6880   -4.5980   -1.3050 H   0  0
   -2.9020   -4.0200    0.1470 H   0  0
   -3.5200   -1.3030    1.8810 H   0  0
   -3.9900   -1.0800    0.1840 H   0  0
   -3.6060   -2.6880    0.7930 H   0  0
    0.7150    3.2070   -0.5530 H   0  0
    1.7320    1.5200    5.1210 H   0  0
    0.9630   -5.8340   -1.2520 H   0  0
   -1.4940   -5.7640   -0.7560 H   0  0
   -1.6000   -5.1210   -2.3790 H   0  0
    3.1000   -2.1430   -0.6450 H   0  0
    3.4220    3.1490    4.3500 H   0  0
    2.4380    4.8300   -1.2500 H   0  0
    3.1020   -4.6150   -0.9510 H   0  0
    5.2520    5.9840    1.0080 H   0  0
    4.0290    6.7030   -0.0370 H   0  0
    5.0310    5.3830   -0.6330 H   0  0
  1  2  1  0
  2  3  1  0
  2  4  1  0
  2  5  1  0
  5  6  1  0
  5  7  1  0
  5  8  1  0
  7  9  1  0
  8 10  1  0
  9 11  1  0
 10 12  1  0
 10 13  1  0
 10 14  1  0
 11 15  2  0
 11 16  1  0
 12 17  2  0
 12 18  1  0
 13 19  1  0
 14 20  1  0
 15 21  1  0
 15 22  1  0
 16 23  2  0
 17 24  1  0
 17 25  1  0
 18 26  2  0
 21 27  1  0
 21 28  2  0
 22 29  2  0
 24 30  2  0
 27 31  2  0
 31 32  1  0
 19 25  1  0
 23 28  1  0
 26 30  1  0
 29 31  1  0
  6 33  1  0
  7 34  1  0
  7 35  1  0
  8 36  1  0
  8 37  1  0
  9 38  1  0
 13 39  1  0
 13 40  1  0
 14 41  1  0
 14 42  1  0
 16 43  1  0
 18 44  1  0
 19 45  1  0
 19 46  1  0
 20 47  1  0
 20 48  1  0
 20 49  1  0
 22 50  1  0
 23 51  1  0
 24 52  1  0
 25 53  1  0
 25 54  1  0
 26 55  1  0
 28 56  1  0
 29 57  1  0
 30 58  1  0
 32 59  1  0
 32 60  1  0
 32 61  1  0
M  END
> <Name>
CHEMBL238147

> <IC50 nM>
14.79

> <Molecule_ChEMBL_ID>
CHEMBL238147

> <Smiles>
CCC1(CC(O)(CNc2cccc3nc(C)ccc23)C(F)(F)F)CCCc2ccccc21

$$$$
CHEMBL235365
  SciTegic08162514323D

 66 70  0  0  1  0            999 V2000
   -0.9090    2.5060    2.5040 F   0  0
   -1.7050    1.4940    2.0330 C   0  0
   -1.8410    0.5320    2.9990 F   0  0
   -2.9400    1.9960    1.7110 F   0  0
   -1.0640    0.8800    0.7880 C   0  0  3  0  0  0
   -0.7640    1.9210   -0.1140 O   0  0
    0.2140    0.2420    1.2620 C   0  0
   -1.9850   -0.1150    0.0800 C   0  0
    0.3160   -0.9600    1.3450 O   0  0
    1.2640    1.0480    1.5970 N   0  0
   -1.5990   -0.3380   -1.3900 C   0  0  3  0  0  0
    2.4340    0.5070    1.9670 C   0  0
   -1.9530    0.8340   -2.2520 C   0  0
   -2.4100   -1.5600   -1.8170 C   0  0
   -0.1100   -0.7370   -1.4760 C   0  0
    3.1770    1.0700    3.0380 C   0  0
    2.9400   -0.6350    1.2900 C   0  0
   -1.0700    1.3040   -3.2750 C   0  0
   -3.1990    1.4920   -2.0640 C   0  0
   -3.8420   -1.5130   -1.2980 C   0  0
   -1.8940   -2.8520   -1.1870 C   0  0
    0.3830   -0.7400   -2.9230 C   0  0
    4.4140    0.4940    3.4240 C   0  0
    4.1740   -1.2120    1.6750 C   0  0
   -1.4460    2.4160   -4.0710 C   0  0
    0.2480    0.6630   -3.5300 C   0  0
   -3.5630    2.5980   -2.8640 C   0  0
   -4.3010   -2.9410   -1.5620 C   0  0
   -3.0960   -3.7970   -1.1760 C   0  0
    4.9050   -0.6400    2.7440 C   0  0
    5.2260    1.0560    4.5420 C   0  0
   -2.6850    3.0600   -3.8680 C   0  0
    6.2090   -1.1990    3.1960 C   0  0
    6.3480    0.5090    4.8690 N   0  0
    4.7620    2.2660    5.3130 C   0  0
    6.7060   -2.1710    2.6740 O   0  0
    6.9220   -0.6650    4.2140 O   0  0
    0.1260    1.7510   -0.4610 H   0  0
   -3.0260    0.1980    0.1620 H   0  0
   -2.0160   -1.0620    0.6180 H   0  0
    1.1640    2.0430    1.5690 H   0  0
   -2.4090   -1.6460   -2.8940 H   0  0
    0.0570   -1.7130   -1.0200 H   0  0
    0.4950   -0.0320   -0.9030 H   0  0
    2.8010    1.9380    3.5620 H   0  0
    2.3910   -1.0790    0.4710 H   0  0
   -3.8870    1.1510   -1.3040 H   0  0
   -4.4470   -0.7850   -1.8180 H   0  0
   -3.8700   -1.2870   -0.2400 H   0  0
   -1.5620   -2.6730   -0.1730 H   0  0
   -1.0580   -3.2630   -1.7350 H   0  0
   -0.1910   -1.4580   -3.5090 H   0  0
    1.4230   -1.0650   -2.9680 H   0  0
    4.5470   -2.0810    1.1520 H   0  0
   -0.7820    2.7790   -4.8430 H   0  0
    1.0220    1.3090   -3.1140 H   0  0
    0.4370    0.6060   -4.6040 H   0  0
   -4.5120    3.0890   -2.7080 H   0  0
   -5.1880   -3.1980   -1.0000 H   0  0
   -4.5280   -3.0680   -2.6120 H   0  0
   -3.2240   -4.2250   -0.1920 H   0  0
   -2.9690   -4.6150   -1.8710 H   0  0
   -2.9620    3.9060   -4.4800 H   0  0
    5.4720    2.4930    6.1090 H   0  0
    4.6370    3.1110    4.6360 H   0  0
    3.7960    2.0630    5.7750 H   0  0
  1  2  1  0
  2  3  1  0
  2  4  1  0
  2  5  1  0
  5  6  1  0
  5  7  1  0
  5  8  1  0
  7  9  2  0
  7 10  1  0
  8 11  1  0
 10 12  1  0
 11 13  1  0
 11 14  1  0
 11 15  1  0
 12 16  2  0
 12 17  1  0
 13 18  2  0
 13 19  1  0
 14 20  1  0
 14 21  1  0
 15 22  1  0
 16 23  1  0
 17 24  2  0
 18 25  1  0
 18 26  1  0
 19 27  2  0
 20 28  1  0
 21 29  1  0
 23 30  2  0
 23 31  1  0
 25 32  2  0
 30 33  1  0
 31 34  2  0
 31 35  1  0
 33 36  2  0
 33 37  1  0
 22 26  1  0
 24 30  1  0
 27 32  1  0
 28 29  1  0
 34 37  1  0
  6 38  1  0
  8 39  1  0
  8 40  1  0
 10 41  1  0
 14 42  1  0
 15 43  1  0
 15 44  1  0
 16 45  1  0
 17 46  1  0
 19 47  1  0
 20 48  1  0
 20 49  1  0
 21 50  1  0
 21 51  1  0
 22 52  1  0
 22 53  1  0
 24 54  1  0
 25 55  1  0
 26 56  1  0
 26 57  1  0
 27 58  1  0
 28 59  1  0
 28 60  1  0
 29 61  1  0
 29 62  1  0
 32 63  1  0
 35 64  1  0
 35 65  1  0
 35 66  1  0
M  END
> <Name>
CHEMBL235365

> <IC50 nM>
8.13

> <Molecule_ChEMBL_ID>
CHEMBL235365

> <Smiles>
Cc1noc(=O)c2ccc(NC(=O)C(O)(CC3(C4CCCC4)CCCc4ccccc43)C(F)(F)F)cc12

$$$$
CHEMBL3933702
  SciTegic08162514323D

 78 83  0  0  1  0            999 V2000
   -1.9880   -5.1860    4.7270 Cl  0  0
   -0.9570   -3.9440    4.1480 C   0  0
    0.3830   -4.2330    3.8220 C   0  0
   -1.4450   -2.6330    4.0000 C   0  0
    1.2270   -3.2150    3.3480 C   0  0
   -0.5990   -1.6150    3.5270 C   0  0
    0.7360   -1.9060    3.1990 C   0  0
    1.6310   -0.8300    2.6950 C   0  0
    1.3070   -0.5370    1.3550 O   0  0
    1.8730    0.6800    0.8980 C   0  0  2  0  0  0
    1.2070    1.1310   -0.4380 C   0  0  2  0  0  0
    3.4080    0.5270    0.7670 C   0  0
   -0.2770    1.3420   -0.3870 C   0  0
    1.6430    0.2150   -1.6130 C   0  0  2  0  0  0
    3.8220   -0.3480   -0.4320 C   0  0  1  0  0  0
   -1.1070    1.0550   -1.5200 C   0  0
   -0.8890    1.8510    0.7950 C   0  0
    3.1780    0.2380   -1.7010 C   0  0  1  0  0  0
    0.9790    0.6780   -2.9140 C   0  0
    5.3150   -0.3690   -0.8560 C   0  0  2  0  0  0
    3.3540   -1.8030   -0.2310 C   0  0
   -2.5080    1.2580   -1.4380 C   0  0
   -0.5450    0.5350   -2.7950 C   0  0
   -2.2850    2.0490    0.8650 C   0  0
    3.8240   -0.5940   -2.8110 C   0  0
    6.0800   -1.2330   -0.0310 O   0  0
    5.9510    0.9570   -0.8280 C   0  0
    5.2330   -0.9240   -2.2950 C   0  0
   -3.0940    1.7500   -0.2500 C   0  0
    6.4770    2.0250   -0.8030 C   0  0
   -4.5570    1.9530   -0.1760 C   0  0
    7.1250    3.3320   -0.7620 C   0  0
   -5.1680    2.9390    0.1600 O   0  0
   -5.2250    0.8240   -0.5550 N   0  0
   -6.5960    0.8070   -0.5570 C   0  0
   -7.3240   -0.2600    0.0290 C   0  0
   -7.3030    1.8690   -1.1520 C   0  0
   -8.6890   -0.2680    0.0230 N   0  0
   -6.6290   -1.4080    0.6740 C   0  0
   -8.7070    1.8440   -1.1510 C   0  0
   -9.3750    0.7600   -0.5530 C   0  0
    0.7720   -5.2350    3.9340 H   0  0
   -2.4710   -2.3950    4.2480 H   0  0
    2.2520   -3.4450    3.0980 H   0  0
   -0.9800   -0.6110    3.4160 H   0  0
    1.4810    0.0740    3.2870 H   0  0
    2.6660   -1.1740    2.7260 H   0  0
    1.6970    1.4100    1.6850 H   0  0
    1.6130    2.1210   -0.6510 H   0  0
    3.8400    0.1350    1.6890 H   0  0
    3.8200    1.5310    0.6540 H   0  0
    1.3110   -0.8090   -1.4240 H   0  0
   -0.3010    2.1010    1.6640 H   0  0
    3.4850    1.2670   -1.8360 H   0  0
    1.3320    0.0880   -3.7600 H   0  0
    1.2480    1.7130   -3.1230 H   0  0
    3.7950   -2.4790   -0.9630 H   0  0
    2.2700   -1.8750   -0.3220 H   0  0
    3.6290   -2.1600    0.7620 H   0  0
   -3.1330    1.0350   -2.2930 H   0  0
   -0.8080   -0.5200   -2.8710 H   0  0
   -1.0160    1.0330   -3.6450 H   0  0
   -2.7230    2.4280    1.7770 H   0  0
    3.8500   -0.0590   -3.7480 H   0  0
    3.2660   -1.5040   -2.9750 H   0  0
    6.8830   -1.4590   -0.5220 H   0  0
    5.9980   -0.5240   -2.9470 H   0  0
    5.3600   -2.0000   -2.3130 H   0  0
    7.2620    3.6540    0.2710 H   0  0
    6.5160    4.0720   -1.2790 H   0  0
    8.1020    3.2830   -1.2440 H   0  0
   -4.7150    0.0100   -0.8320 H   0  0
   -6.7870    2.7010   -1.6110 H   0  0
   -7.2970   -2.1620    1.0920 H   0  0
   -5.9940   -1.0430    1.4800 H   0  0
   -5.9880   -1.9020   -0.0570 H   0  0
   -9.2680    2.6480   -1.6020 H   0  0
  -10.4550    0.7380   -0.5510 H   0  0
  1  2  1  0
  2  3  2  0
  2  4  1  0
  3  5  1  0
  4  6  2  0
  5  7  2  0
  7  8  1  0
  8  9  1  0
 10  9  1  0
 10 11  1  0
 10 12  1  0
 11 13  1  0
 11 14  1  0
 12 15  1  0
 13 16  2  0
 13 17  1  0
 14 18  1  0
 14 19  1  0
 15 20  1  0
 15 21  1  0
 16 22  1  0
 16 23  1  0
 17 24  2  0
 18 25  1  0
 20 26  1  0
 20 27  1  0
 20 28  1  0
 22 29  2  0
 27 30  3  0
 29 31  1  0
 30 32  1  0
 31 33  2  0
 31 34  1  0
 34 35  1  0
 35 36  2  0
 35 37  1  0
 36 38  1  0
 36 39  1  0
 37 40  2  0
 38 41  2  0
  6  7  1  0
 15 18  1  0
 19 23  1  0
 24 29  1  0
 25 28  1  0
 40 41  1  0
  3 42  1  0
  4 43  1  0
  5 44  1  0
  6 45  1  0
  8 46  1  0
  8 47  1  0
 10 48  1  0
 11 49  1  0
 12 50  1  0
 12 51  1  0
 14 52  1  0
 17 53  1  0
 18 54  1  0
 19 55  1  0
 19 56  1  0
 21 57  1  0
 21 58  1  0
 21 59  1  0
 22 60  1  0
 23 61  1  0
 23 62  1  0
 24 63  1  0
 25 64  1  0
 25 65  1  0
 26 66  1  0
 28 67  1  0
 28 68  1  0
 32 69  1  0
 32 70  1  0
 32 71  1  0
 34 72  1  0
 37 73  1  0
 39 74  1  0
 39 75  1  0
 39 76  1  0
 40 77  1  0
 41 78  1  0
M  END
> <Name>
CHEMBL3933702

> <IC50 nM>
0.07

> <Molecule_ChEMBL_ID>
CHEMBL3933702

> <Smiles>
CC#C[C@]1(O)CC[C@H]2[C@@H]3CCc4cc(C(=O)Nc5cccnc5C)ccc4[C@H]3[C@@H](OCc3ccc(Cl)cc3)C[C@@]21C

$$$$
CHEMBL243870
  SciTegic08162514323D

 52 54  0  0  1  0            999 V2000
    0.4060   -1.3930    1.4410 S   0  0
    1.3090   -0.9470    2.4880 O   0  0
   -0.9800   -1.0370    1.6890 O   0  0
    0.8730   -0.5290    0.0060 N   0  0
    0.5140   -3.1150    1.3280 C   0  0
    0.6820    0.9120   -0.0160 C   0  0  2  0  0  0
    0.8400   -3.8750    2.4670 C   0  0
    0.2750   -3.7540    0.0960 C   0  0
    0.8560    1.4530   -1.4360 C   0  0
    1.6070    1.5900    0.9920 C   0  0
    0.9260   -5.2760    2.3710 C   0  0
    1.0920   -3.2070    3.7700 C   0  0
    0.3630   -5.1540    0.0060 C   0  0
   -0.0700   -2.9570   -1.1090 C   0  0
    0.4180    2.9020   -1.5270 C   0  0
    0.6880   -5.9160    1.1430 C   0  0
   -0.8440    3.3910   -1.5630 C   0  0
    1.2620    4.0270   -1.5920 C   0  0
    0.7790   -7.3970    1.0450 C   0  0
   -0.8730    4.7600   -1.6470 C   0  0
   -2.0390    2.6310   -1.5220 C   0  0
    0.4470    5.1860   -1.6660 N   0  0
   -2.0960    5.4730   -1.6970 C   0  0
   -3.2790    3.3180   -1.5680 C   0  0
   -3.3090    4.7360   -1.6560 C   0  0
   -2.1170    6.9410   -1.7890 C   0  0
    1.8610   -0.7250   -0.2070 H   0  0
   -0.3570    0.9900    0.3030 H   0  0
    0.2850    0.8570   -2.1480 H   0  0
    1.8930    1.3650   -1.7560 H   0  0
    1.3280    1.3260    2.0120 H   0  0
    2.6450    1.2990    0.8220 H   0  0
    1.5490    2.6760    0.9020 H   0  0
    1.1760   -5.8610    3.2460 H   0  0
    0.3670   -2.4360    4.0250 H   0  0
    2.0800   -2.7460    3.7560 H   0  0
    1.0840   -3.9510    4.5660 H   0  0
    0.1800   -5.6470   -0.9390 H   0  0
   -0.7890   -2.1580   -0.9300 H   0  0
   -0.4840   -3.6130   -1.8730 H   0  0
    0.8340   -2.5040   -1.5180 H   0  0
    2.3420    4.0470   -1.5880 H   0  0
    0.5780   -7.7930    0.0490 H   0  0
    0.0700   -7.8520    1.7340 H   0  0
    1.7790   -7.7190    1.3340 H   0  0
   -2.0200    1.5510   -1.4570 H   0  0
    0.7680    6.1230   -1.7210 H   0  0
   -4.2050    2.7620   -1.5390 H   0  0
   -4.2580    5.2500   -1.6910 H   0  0
   -1.1310    7.4040   -1.8130 H   0  0
   -2.6560    7.3520   -0.9340 H   0  0
   -2.6480    7.2420   -2.6910 H   0  0
  1  2  2  0
  1  3  2  0
  1  4  1  0
  1  5  1  0
  4  6  1  0
  5  7  2  0
  5  8  1  0
  6  9  1  0
  6 10  1  0
  7 11  1  0
  7 12  1  0
  8 13  2  0
  8 14  1  0
  9 15  1  0
 11 16  2  0
 15 17  1  0
 15 18  2  0
 16 19  1  0
 17 20  1  0
 17 21  2  0
 18 22  1  0
 20 23  2  0
 21 24  1  0
 23 25  1  0
 23 26  1  0
 13 16  1  0
 20 22  1  0
 24 25  2  0
  4 27  1  0
  6 28  1  0
  9 29  1  0
  9 30  1  0
 10 31  1  0
 10 32  1  0
 10 33  1  0
 11 34  1  0
 12 35  1  0
 12 36  1  0
 12 37  1  0
 13 38  1  0
 14 39  1  0
 14 40  1  0
 14 41  1  0
 18 42  1  0
 19 43  1  0
 19 44  1  0
 19 45  1  0
 21 46  1  0
 22 47  1  0
 24 48  1  0
 25 49  1  0
 26 50  1  0
 26 51  1  0
 26 52  1  0
M  END
> <Name>
CHEMBL243870

> <IC50 nM>
120

> <Molecule_ChEMBL_ID>
CHEMBL243870

> <Smiles>
Cc1cc(C)c(S(=O)(=O)NC(C)Cc2c[nH]c3c(C)cccc23)c(C)c1

$$$$
CHEMBL243693
  SciTegic08162514323D

 52 54  0  0  1  0            999 V2000
    1.8320   -0.7730   -0.1480 S   0  0
    1.9730   -0.4790   -1.5630 O   0  0
    2.6720    0.0570    0.6970 O   0  0
    0.1890   -0.3670    0.2640 N   0  0
    2.2660   -2.4260    0.1110 C   0  0
   -0.2230    1.0200    0.1330 C   0  0  1  0  0  0
    3.1970   -3.0490   -0.7380 C   0  0
    1.6840   -3.1490    1.1700 C   0  0
   -0.1760    1.4390   -1.3130 C   0  0
   -1.6040    1.2270    0.7560 C   0  0
    3.5490   -4.3950   -0.5270 C   0  0
    3.8140   -2.2930   -1.8610 C   0  0
    2.0390   -4.4920    1.3790 C   0  0
    0.6970   -2.4960    2.0720 C   0  0
   -0.9730    1.0080   -2.1110 O   0  0
    0.7890    2.3010   -1.6190 O   0  0
   -2.0330    2.6780    0.6640 C   0  0
    2.9710   -5.1170    0.5310 C   0  0
    0.7830    2.6520   -2.9940 C   0  0
   -3.2950    3.1680    0.6290 C   0  0
   -1.1900    3.8010    0.6000 C   0  0
    3.3440   -6.5390    0.7520 C   0  0
   -3.3200    4.5370    0.5450 C   0  0
   -4.4920    2.4140    0.6680 C   0  0
   -2.0000    4.9610    0.5250 N   0  0
   -4.5370    5.2560    0.4940 C   0  0
   -5.7310    3.1050    0.6210 C   0  0
   -5.7520    4.5230    0.5330 C   0  0
   -0.4550   -0.9510   -0.2870 H   0  0
    0.4350    1.6520    0.7250 H   0  0
   -1.6080    0.9120    1.7990 H   0  0
   -2.3460    0.5960    0.2680 H   0  0
    4.2660   -4.8730   -1.1800 H   0  0
    4.1760   -1.3010   -1.5880 H   0  0
    3.0880   -2.1740   -2.6620 H   0  0
    4.6600   -2.8580   -2.2580 H   0  0
    1.5940   -5.0490    2.1930 H   0  0
    0.9610   -1.4810    2.3650 H   0  0
    0.5900   -3.0880    2.9800 H   0  0
   -0.2760   -2.4590    1.5800 H   0  0
    1.5430    3.4160   -3.1560 H   0  0
    0.8850    1.7400   -3.5820 H   0  0
   -0.1860    3.0940   -3.2310 H   0  0
   -0.1080    3.8200    0.6030 H   0  0
    2.8380   -7.0080    1.5980 H   0  0
    4.4180   -6.6100    0.9240 H   0  0
    3.1090   -7.1190   -0.1390 H   0  0
   -4.4750    1.3340    0.7340 H   0  0
   -1.6800    5.9000    0.4690 H   0  0
   -4.5470    6.3340    0.4280 H   0  0
   -6.6560    2.5530    0.6500 H   0  0
   -6.6970    5.0470    0.4980 H   0  0
  1  2  2  0
  1  3  2  0
  1  4  1  0
  1  5  1  0
  6  4  1  0
  5  7  2  0
  5  8  1  0
  6  9  1  0
  6 10  1  0
  7 11  1  0
  7 12  1  0
  8 13  2  0
  8 14  1  0
  9 15  2  0
  9 16  1  0
 10 17  1  0
 11 18  2  0
 16 19  1  0
 17 20  1  0
 17 21  2  0
 18 22  1  0
 20 23  1  0
 20 24  2  0
 21 25  1  0
 23 26  2  0
 24 27  1  0
 26 28  1  0
 13 18  1  0
 23 25  1  0
 27 28  2  0
  4 29  1  0
  6 30  1  0
 10 31  1  0
 10 32  1  0
 11 33  1  0
 12 34  1  0
 12 35  1  0
 12 36  1  0
 13 37  1  0
 14 38  1  0
 14 39  1  0
 14 40  1  0
 19 41  1  0
 19 42  1  0
 19 43  1  0
 21 44  1  0
 22 45  1  0
 22 46  1  0
 22 47  1  0
 24 48  1  0
 25 49  1  0
 26 50  1  0
 27 51  1  0
 28 52  1  0
M  END
> <Name>
CHEMBL243693

> <IC50 nM>
2000

> <Molecule_ChEMBL_ID>
CHEMBL243693

> <Smiles>
COC(=O)[C@@H](Cc1c[nH]c2ccccc12)NS(=O)(=O)c1c(C)cc(C)cc1C

$$$$
CHEMBL390434
  SciTegic08162514323D

 43 45  0  0  1  0            999 V2000
    3.7990   -1.4430   -2.3590 Cl  0  0
    2.3090   -2.2660   -2.5860 C   0  0
    1.0820   -1.6170   -2.3320 C   0  0
    2.3150   -3.6020   -3.0270 C   0  0
    1.0510    0.0250   -1.7890 S   0  0
   -0.1310   -2.3070   -2.5220 C   0  0
    1.1040   -4.2870   -3.2150 C   0  0
   -0.3050    0.5270   -1.9360 O   0  0
    2.0270    0.7790   -2.5550 O   0  0
    1.4690    0.2580   -0.1170 N   0  0
   -0.1170   -3.6430   -2.9630 C   0  0
   -1.4280   -1.6310   -2.2600 C   0  0
    0.6330   -0.3770    0.8910 C   0  0  2  0  0  0
    0.7870    0.3320    2.2360 C   0  0
    0.9380   -1.8730    0.9730 C   0  0
    0.3570    1.7830    2.1450 C   0  0
   -0.9040    2.2740    2.1090 C   0  0
    1.2010    2.9060    2.0800 C   0  0
   -0.9300    3.6430    2.0250 C   0  0
   -2.1020    1.5180    2.1480 C   0  0
    0.3910    4.0670    2.0060 N   0  0
   -2.1460    4.3610    1.9750 C   0  0
   -3.3400    2.2110    2.1020 C   0  0
   -3.3610    3.6290    2.0140 C   0  0
    3.2460   -4.1130   -3.2290 H   0  0
    1.1090   -5.3120   -3.5530 H   0  0
    2.4410   -0.0410    0.0390 H   0  0
   -1.0450   -4.1760   -3.1070 H   0  0
   -1.6520   -0.8090   -2.9390 H   0  0
   -1.4320   -1.2340   -1.2440 H   0  0
   -2.2380   -2.3550   -2.3360 H   0  0
   -0.3610   -0.2070    0.4770 H   0  0
    1.8180    0.2810    2.5840 H   0  0
    0.2030   -0.1720    3.0060 H   0  0
    0.6780   -2.3710    0.0390 H   0  0
    1.9920   -2.0410    1.1840 H   0  0
    0.3590   -2.3400    1.7720 H   0  0
    2.2830    2.9260    2.0840 H   0  0
   -2.0840    0.4400    2.2150 H   0  0
    0.7110    5.0060    1.9490 H   0  0
   -2.1560    5.4400    1.9080 H   0  0
   -4.2660    1.6580    2.1310 H   0  0
   -4.3070    4.1510    1.9790 H   0  0
  1  2  1  0
  2  3  2  0
  2  4  1  0
  3  5  1  0
  3  6  1  0
  4  7  2  0
  5  8  2  0
  5  9  2  0
  5 10  1  0
  6 11  2  0
  6 12  1  0
 10 13  1  0
 13 14  1  0
 13 15  1  0
 14 16  1  0
 16 17  1  0
 16 18  2  0
 17 19  1  0
 17 20  2  0
 18 21  1  0
 19 22  2  0
 20 23  1  0
 22 24  1  0
  7 11  1  0
 19 21  1  0
 23 24  2  0
  4 25  1  0
  7 26  1  0
 10 27  1  0
 11 28  1  0
 12 29  1  0
 12 30  1  0
 12 31  1  0
 13 32  1  0
 14 33  1  0
 14 34  1  0
 15 35  1  0
 15 36  1  0
 15 37  1  0
 18 38  1  0
 20 39  1  0
 21 40  1  0
 22 41  1  0
 23 42  1  0
 24 43  1  0
M  END
> <Name>
CHEMBL390434

> <IC50 nM>
280

> <Molecule_ChEMBL_ID>
CHEMBL390434

> <Smiles>
Cc1cccc(Cl)c1S(=O)(=O)NC(C)Cc1c[nH]c2ccccc12

$$$$
CHEMBL232833
  SciTegic08162514323D

 40 42  0  0  1  0            999 V2000
    3.0330   -3.6110    1.3220 Cl  0  0
    2.0330   -2.8650    2.5020 C   0  0
    0.6840   -2.5720    2.2230 C   0  0
    2.5700   -2.5410    3.7640 C   0  0
   -0.0120   -2.9550    0.6880 S   0  0
   -0.1210   -1.9610    3.1990 C   0  0
    1.7640   -1.9280    4.7360 C   0  0
   -1.4300   -2.6460    0.7380 O   0  0
    0.2600   -4.3520    0.3980 O   0  0
    0.6270   -2.0530   -0.6580 N   0  0
    0.4180   -1.6390    4.4550 C   0  0
    0.4000   -0.6190   -0.6860 C   0  0  2  0  0  0
    0.5820   -0.0760   -2.1030 C   0  0
    1.2970    0.0840    0.3340 C   0  0
    0.1520    1.3750   -2.1930 C   0  0
   -1.1070    1.8650   -2.2300 C   0  0
    0.9960    2.5000   -2.2600 C   0  0
   -1.1330    3.2350   -2.3140 C   0  0
   -2.3070    1.1110   -2.1890 C   0  0
    0.1860    3.6580   -2.3340 N   0  0
   -2.3520    3.9530   -2.3650 C   0  0
   -3.5450    1.8030   -2.2380 C   0  0
   -3.5670    3.2210   -2.3240 C   0  0
    3.6040   -2.7600    3.9960 H   0  0
   -1.1560   -1.7360    2.9860 H   0  0
    2.1780   -1.6800    5.7030 H   0  0
    1.6410   -2.2230   -0.7320 H   0  0
   -0.2010   -1.1660    5.2030 H   0  0
   -0.6450   -0.5620   -0.3830 H   0  0
    0.0140   -0.6680   -2.8180 H   0  0
    1.6210   -0.1660   -2.4220 H   0  0
    1.0760   -0.2600    1.3460 H   0  0
    2.3500   -0.1030    0.1190 H   0  0
    1.1390    1.1620    0.3090 H   0  0
    2.0780    2.5180   -2.2560 H   0  0
   -2.2890    0.0310   -2.1250 H   0  0
    0.5080    4.5980   -2.3910 H   0  0
   -2.3610    5.0310   -2.4320 H   0  0
   -4.4710    1.2500   -2.2070 H   0  0
   -4.5120    3.7440   -2.3610 H   0  0
  1  2  1  0
  2  3  2  0
  2  4  1  0
  3  5  1  0
  3  6  1  0
  4  7  2  0
  5  8  2  0
  5  9  2  0
  5 10  1  0
  6 11  2  0
 10 12  1  0
 12 13  1  0
 12 14  1  0
 13 15  1  0
 15 16  1  0
 15 17  2  0
 16 18  1  0
 16 19  2  0
 17 20  1  0
 18 21  2  0
 19 22  1  0
 21 23  1  0
  7 11  1  0
 18 20  1  0
 22 23  2  0
  4 24  1  0
  6 25  1  0
  7 26  1  0
 10 27  1  0
 11 28  1  0
 12 29  1  0
 13 30  1  0
 13 31  1  0
 14 32  1  0
 14 33  1  0
 14 34  1  0
 17 35  1  0
 19 36  1  0
 20 37  1  0
 21 38  1  0
 22 39  1  0
 23 40  1  0
M  END
> <Name>
CHEMBL232833

> <IC50 nM>
4100

> <Molecule_ChEMBL_ID>
CHEMBL232833

> <Smiles>
CC(Cc1c[nH]c2ccccc12)NS(=O)(=O)c1ccccc1Cl

$$$$
CHEMBL3937635
  SciTegic08162514323D

 59 63  0  0  1  0            999 V2000
    7.0820    5.8830   -0.7230 F   0  0
    6.5940    4.6490   -0.6270 C   0  0
    5.5450    4.3730    0.2700 C   0  0
    7.1270    3.6190   -1.4220 C   0  0
    5.0290    3.0700    0.3710 C   0  0
    6.6110    2.3150   -1.3220 C   0  0
    5.5620    2.0370   -0.4260 C   0  0
    5.0640    0.7770   -0.3280 N   0  0
    5.8140   -0.3790   -0.3030 N   0  0
    3.7580    0.4220   -0.2360 C   0  0
    5.0840   -1.5450   -0.1990 C   0  0
    3.8320   -0.9570   -0.1640 C   0  0
    2.5350    1.1330   -0.2110 C   0  0
    2.6350   -1.7110   -0.0560 C   0  0
    1.3380    0.3830   -0.1030 C   0  0
    1.3870   -1.0350   -0.0250 C   0  0
    0.2500   -1.7380    0.0760 O   0  0
   -0.9610   -1.1090   -0.3200 C   0  0  2  0  0  0
   -1.4920   -0.3030    0.8090 C   0  0
   -1.9630   -2.1720   -0.7730 C   0  0  1  0  0  0
   -1.3970   -0.7790    2.1310 C   0  0
   -2.0960    0.9450    0.5690 C   0  0
   -3.2050   -1.5530   -1.2580 N   0  0
   -1.3810   -3.1250   -1.8180 C   0  0
   -1.8790   -0.0530    3.1820 N   0  0
   -2.5880    1.6820    1.6580 C   0  0
   -4.3420   -2.3050   -1.3400 C   0  0
   -2.4670    1.1600    2.9630 C   0  0
   -4.3280   -3.4690   -1.0150 O   0  0
   -5.6080   -1.6370   -1.8440 C   0  0
   -2.9280    1.8500    3.9870 O   0  0
   -6.9510   -2.2540   -1.5150 C   0  0
   -6.4180   -2.3120   -2.9300 C   0  0
   -2.7910    1.2890    5.2830 C   0  0
    5.1330    5.1620    0.8830 H   0  0
    7.9320    3.8260   -2.1110 H   0  0
    4.2230    2.8790    1.0650 H   0  0
    7.0350    1.5350   -1.9410 H   0  0
    5.4360   -2.5680   -0.1600 H   0  0
    2.5120    2.2110   -0.2690 H   0  0
    2.6620   -2.7910    0.0040 H   0  0
    0.3850    0.8930   -0.0820 H   0  0
   -0.7360   -0.4200   -1.1330 H   0  0
   -2.3480   -2.7270    0.0820 H   0  0
   -0.9360   -1.7360    2.3220 H   0  0
   -2.1820    1.3320   -0.4350 H   0  0
   -3.2170   -0.5900   -1.5270 H   0  0
   -2.1060   -3.8750   -2.1330 H   0  0
   -0.5120   -3.6460   -1.4220 H   0  0
   -1.0650   -2.5760   -2.7050 H   0  0
   -3.0550    2.6430    1.4960 H   0  0
   -5.5700   -0.5470   -1.8750 H   0  0
   -7.7810   -1.5760   -1.3140 H   0  0
   -6.9670   -3.1800   -0.9390 H   0  0
   -6.8930   -1.6740   -3.6760 H   0  0
   -6.0760   -3.2770   -3.3030 H   0  0
   -3.3750    0.3690    5.3210 H   0  0
   -1.7290    1.1950    5.5060 H   0  0
   -3.2210    1.9840    6.0040 H   0  0
  1  2  1  0
  2  3  2  0
  2  4  1  0
  3  5  1  0
  4  6  2  0
  5  7  2  0
  7  8  1  0
  8  9  1  0
  8 10  1  0
  9 11  2  0
 10 12  1  0
 10 13  2  0
 12 14  2  0
 13 15  1  0
 14 16  1  0
 16 17  1  0
 18 17  1  0
 18 19  1  0
 18 20  1  0
 19 21  2  0
 19 22  1  0
 20 23  1  0
 20 24  1  0
 21 25  1  0
 22 26  2  0
 23 27  1  0
 25 28  2  0
 27 29  2  0
 27 30  1  0
 28 31  1  0
 30 32  1  0
 30 33  1  0
 31 34  1  0
  6  7  1  0
 11 12  1  0
 15 16  2  0
 26 28  1  0
 32 33  1  0
  3 35  1  0
  4 36  1  0
  5 37  1  0
  6 38  1  0
 11 39  1  0
 13 40  1  0
 14 41  1  0
 15 42  1  0
 18 43  1  0
 20 44  1  0
 21 45  1  0
 22 46  1  0
 23 47  1  0
 24 48  1  0
 24 49  1  0
 24 50  1  0
 26 51  1  0
 30 52  1  0
 32 53  1  0
 32 54  1  0
 33 55  1  0
 33 56  1  0
 34 57  1  0
 34 58  1  0
 34 59  1  0
M  END
> <Name>
CHEMBL3937635

> <IC50 nM>
6.3

> <Molecule_ChEMBL_ID>
CHEMBL3937635

> <Smiles>
COc1ccc([C@@H](Oc2ccc3c(cnn3-c3ccc(F)cc3)c2)[C@H](C)NC(=O)C2CC2)cn1

$$$$
CHEMBL2023234
  SciTegic08162514323D

 79 86  0  0  1  0            999 V2000
    6.5000   -3.4940    0.7790 S   0  0
    6.4260   -2.3130    2.0610 C   0  0
    7.0040   -4.5450    1.9490 C   0  0
    6.0220   -0.6840    2.2400 S   0  0
    6.8010   -2.8070    3.3280 N   0  0
    7.1410   -4.1290    3.2520 C   0  0
    7.3050   -5.8950    1.6330 C   0  0
    5.5920   -0.2150    0.6110 C   0  0
    7.5700   -4.9900    4.2910 C   0  0
    7.7380   -6.7910    2.6430 C   0  0
    4.1520   -0.5700    0.3500 C   0  0
    7.8710   -6.3360    3.9770 C   0  0
    3.8440   -1.6820   -0.0160 O   0  0
    3.1070    0.5000    0.5570 C   0  0  2  0  0  0
    2.9060    0.6070    1.9570 O   0  0
    1.7600    0.2340   -0.1540 C   0  0  2  0  0  0
    3.5160    1.8830   -0.0100 C   0  0
    1.1470    1.6520   -0.0760 C   0  0  1  0  0  0
    0.7870   -0.8220    0.4220 C   0  0
    2.0920   -0.1370   -1.6110 C   0  0
    2.2660    2.5230   -0.6330 C   0  0
   -0.2440    1.5860   -0.7110 C   0  0  1  0  0  0
   -0.4340   -0.1990    1.1290 C   0  0  1  0  0  0
   -1.2110    0.8830    0.2850 C   0  0  2  0  0  0
   -0.8110    2.9410   -1.1110 C   0  0
   -1.2380   -1.2420    1.6290 O   0  0
   -2.5680    0.5310   -0.4240 C   0  0  2  0  0  0
   -2.1190    2.7290   -1.8730 C   0  0
   -3.0920    1.7700   -1.2010 C   0  0
   -3.6150   -0.0330    0.6110 C   0  0
   -2.3180   -0.5510   -1.4820 C   0  0
   -4.4100    2.0350   -1.3320 C   0  0
   -5.0760    0.1780    0.2400 C   0  0
   -5.3910    1.1740   -0.6600 C   0  0
   -6.1580   -0.5390    0.7460 C   0  0
   -6.7460    1.1000   -0.7070 N   0  0
   -7.1760    0.0980    0.1070 N   0  0
   -7.5610    1.8930   -1.4470 C   0  0
   -8.6450    2.4690   -0.8520 N   0  0
   -7.2790    2.1110   -2.8140 C   0  0
   -9.4770    3.2720   -1.5780 C   0  0
   -8.1290    2.9360   -3.5700 C   0  0
   -9.2420    3.5220   -2.9430 C   0  0
    7.2050   -6.2440    0.6150 H   0  0
    5.7340    0.8590    0.4920 H   0  0
    6.2360   -0.7320   -0.0980 H   0  0
    7.6700   -4.6310    5.3050 H   0  0
    7.9650   -7.8170    2.3950 H   0  0
    8.2010   -7.0140    4.7500 H   0  0
    3.7330    0.9430    2.3380 H   0  0
    3.9410    2.5250    0.7480 H   0  0
    4.2740    1.7830   -0.7750 H   0  0
    1.0100    1.9710    0.9490 H   0  0
    1.3260   -1.4880    1.0980 H   0  0
    0.4180   -1.4630   -0.3830 H   0  0
    2.8340    0.5330   -2.0430 H   0  0
    1.1970   -0.0900   -2.2340 H   0  0
    2.4840   -1.1520   -1.6700 H   0  0
    2.1500    3.5610   -0.3540 H   0  0
    2.2970    2.4750   -1.7130 H   0  0
   -0.1760    0.9940   -1.6250 H   0  0
   -0.0530    0.2970    2.0230 H   0  0
   -1.4820    1.6370    1.0270 H   0  0
   -0.9800    3.5570   -0.2270 H   0  0
   -0.1050    3.4840   -1.7420 H   0  0
   -0.7290   -1.6930    2.3200 H   0  0
   -1.8930    2.3360   -2.8650 H   0  0
   -2.5900    3.6990   -2.0330 H   0  0
   -3.4880   -1.1050    0.7520 H   0  0
   -3.4690    0.4360    1.5840 H   0  0
   -3.2600   -0.9160   -1.8910 H   0  0
   -1.7070   -0.1580   -2.2970 H   0  0
   -1.7890   -1.3980   -1.0490 H   0  0
   -4.7500    2.8710   -1.9280 H   0  0
   -6.2210   -1.3630    1.4450 H   0  0
   -6.4200    1.6560   -3.2890 H   0  0
  -10.3300    3.7210   -1.0960 H   0  0
   -7.9320    3.1150   -4.6170 H   0  0
   -9.9100    4.1600   -3.5040 H   0  0
  1  2  1  0
  1  3  1  0
  2  4  1  0
  2  5  2  0
  3  6  1  0
  3  7  2  0
  4  8  1  0
  6  9  2  0
  7 10  1  0
  8 11  1  0
  9 12  1  0
 11 13  2  0
 11 14  1  0
 14 15  1  0
 14 16  1  0
 14 17  1  0
 16 18  1  0
 16 19  1  0
 16 20  1  0
 17 21  1  0
 18 22  1  0
 19 23  1  0
 24 22  1  0
 22 25  1  0
 23 26  1  0
 24 27  1  0
 25 28  1  0
 27 29  1  0
 27 30  1  0
 27 31  1  0
 29 32  2  0
 30 33  1  0
 32 34  1  0
 33 35  1  0
 34 36  1  0
 35 37  2  0
 36 38  1  0
 38 39  2  0
 38 40  1  0
 39 41  1  0
 40 42  2  0
 41 43  2  0
  5  6  1  0
 10 12  2  0
 18 21  1  0
 23 24  1  0
 28 29  1  0
 33 34  2  0
 36 37  1  0
 42 43  1  0
  7 44  1  0
  8 45  1  0
  8 46  1  0
  9 47  1  0
 10 48  1  0
 12 49  1  0
 15 50  1  0
 17 51  1  0
 17 52  1  0
 18 53  1  0
 19 54  1  0
 19 55  1  0
 20 56  1  0
 20 57  1  0
 20 58  1  0
 21 59  1  0
 21 60  1  0
 22 61  1  0
 23 62  1  0
 24 63  1  0
 25 64  1  0
 25 65  1  0
 26 66  1  0
 28 67  1  0
 28 68  1  0
 30 69  1  0
 30 70  1  0
 31 71  1  0
 31 72  1  0
 31 73  1  0
 32 74  1  0
 35 75  1  0
 40 76  1  0
 41 77  1  0
 42 78  1  0
 43 79  1  0
M  END
> <Name>
CHEMBL2023234

> <IC50 nM>
179

> <Molecule_ChEMBL_ID>
CHEMBL2023234

> <Smiles>
C[C@]12Cc3cnn(-c4ccccn4)c3C=C1CC[C@@H]1[C@@H]2[C@@H](O)C[C@@]2(C)[C@H]1CC[C@]2(O)C(=O)CSc1nc2ccccc2s1

$$$$
CHEMBL2023244
  SciTegic08162514323D

 84 91  0  0  1  0            999 V2000
  -11.4870   -0.8910    3.1950 F   0  0
  -10.5140   -0.3240    2.4850 C   0  0
   -9.2780   -0.0330    3.0900 C   0  0
  -10.7210   -0.0170    1.1290 C   0  0
   -8.2500    0.5650    2.3420 C   0  0
   -9.6940    0.5800    0.3770 C   0  0
   -8.4550    0.8730    0.9830 C   0  0
   -7.4630    1.4510    0.2580 N   0  0
   -7.6310    2.5120   -0.5760 N   0  0
   -6.1600    1.0670    0.2500 C   0  0
   -6.4810    2.8930   -1.1910 C   0  0
   -5.6040    1.9550   -0.6480 C   0  0
   -5.4200    0.0140    0.9530 C   0  0
   -4.1250    1.8220   -0.9800 C   0  0
   -4.0720   -0.0310    0.8560 C   0  0
   -3.2620    1.0450    0.0840 C   0  0  1  0  0  0
   -3.3610   -1.1780    1.5590 C   0  0
   -2.0020    0.3870   -0.5860 C   0  0  1  0  0  0
   -2.7950    2.0530    1.1450 C   0  0
   -2.1230   -1.6950    0.8300 C   0  0
   -0.9770    1.2540   -1.4100 C   0  0  1  0  0  0
   -1.2480   -0.5120    0.4400 C   0  0  1  0  0  0
   -1.5060    2.4550   -1.9260 O   0  0
    0.3400    1.5820   -0.6760 C   0  0
    0.1020   -0.9040   -0.1660 C   0  0  1  0  0  0
    1.0270    0.3300   -0.0780 C   0  0  1  0  0  0
    0.9770   -2.0080    0.4180 C   0  0
    2.2890   -0.2460   -0.7580 C   0  0  1  0  0  0
    1.4080    0.6250    1.3870 C   0  0
    2.3540   -1.6820   -0.1820 C   0  0
    2.0960   -0.3140   -2.1620 O   0  0
    3.5510    0.5530   -0.5330 C   0  0
    3.5040    1.7400   -0.3120 O   0  0
    4.8690   -0.1740   -0.5940 C   0  0
    5.9040    0.7500   -0.9000 O   0  0
    7.1560    0.2830   -0.9840 C   0  0
    7.4120   -1.0940   -0.7730 C   0  0
    8.2210    1.1680   -1.2830 C   0  0
    8.7380   -1.5860   -0.8650 C   0  0
    9.5470    0.6840   -1.3730 C   0  0
    9.8130   -0.6930   -1.1640 C   0  0
    9.0020   -2.9650   -0.6600 C   0  0
   11.1390   -1.1870   -1.2500 C   0  0
   10.3280   -3.4490   -0.7500 C   0  0
   11.3930   -2.5620   -1.0430 C   0  0
   -9.1150   -0.2670    4.1330 H   0  0
  -11.6680   -0.2400    0.6600 H   0  0
   -7.3070    0.7810    2.8240 H   0  0
   -9.8730    0.8090   -0.6640 H   0  0
   -6.3340    3.7010   -1.8940 H   0  0
   -5.9550   -0.7150    1.5450 H   0  0
   -4.0630    1.3220   -1.9470 H   0  0
   -3.7520    2.8360   -1.1230 H   0  0
   -3.0720   -0.8360    2.5530 H   0  0
   -4.0470   -2.0120    1.7150 H   0  0
   -2.4200   -0.2910   -1.3320 H   0  0
   -3.6390    2.6290    1.5260 H   0  0
   -2.3110    1.5410    1.9750 H   0  0
   -2.0780    2.7560    0.7210 H   0  0
   -2.4080   -2.2640   -0.0550 H   0  0
   -1.5760   -2.3790    1.4810 H   0  0
   -0.7010    0.6800   -2.2970 H   0  0
   -1.0640    0.0570    1.3520 H   0  0
   -0.8670    2.7950   -2.5720 H   0  0
    1.0330    2.1020   -1.3360 H   0  0
    0.1090    2.2930    0.1210 H   0  0
   -0.0840   -1.1910   -1.1930 H   0  0
    0.9960   -1.9610    1.4960 H   0  0
    0.6290   -2.9920    0.1390 H   0  0
    1.9120   -0.2210    1.8540 H   0  0
    0.5200    0.8520    1.9770 H   0  0
    2.0760    1.4840    1.4450 H   0  0
    3.1000   -1.7560    0.5980 H   0  0
    2.6310   -2.4120   -0.9300 H   0  0
    2.8090   -0.8650   -2.5230 H   0  0
    4.8400   -0.9280   -1.3790 H   0  0
    5.0880   -0.6230    0.3750 H   0  0
    6.5900   -1.7560   -0.5470 H   0  0
    8.0200    2.2170   -1.4430 H   0  0
   10.3460    1.3770   -1.6000 H   0  0
    8.2010   -3.6560   -0.4350 H   0  0
   11.9650   -0.5250   -1.4730 H   0  0
   10.5270   -4.5000   -0.5940 H   0  0
   12.4030   -2.9390   -1.1070 H   0  0
  1  2  1  0
  2  3  2  0
  2  4  1  0
  3  5  1  0
  4  6  2  0
  5  7  2  0
  7  8  1  0
  8  9  1  0
  8 10  1  0
  9 11  2  0
 10 12  2  0
 10 13  1  0
 12 14  1  0
 13 15  2  0
 14 16  1  0
 15 17  1  0
 16 18  1  0
 16 19  1  0
 17 20  1  0
 18 21  1  0
 18 22  1  0
 21 23  1  0
 21 24  1  0
 22 25  1  0
 24 26  1  0
 25 27  1  0
 26 28  1  0
 26 29  1  0
 27 30  1  0
 28 31  1  0
 28 32  1  0
 32 33  2  0
 32 34  1  0
 34 35  1  0
 35 36  1  0
 36 37  2  0
 36 38  1  0
 37 39  1  0
 38 40  2  0
 39 41  1  0
 39 42  2  0
 41 43  2  0
 42 44  1  0
 43 45  1  0
  6  7  1  0
 11 12  1  0
 15 16  1  0
 22 20  1  0
 25 26  1  0
 28 30  1  0
 40 41  1  0
 44 45  2  0
  3 46  1  0
  4 47  1  0
  5 48  1  0
  6 49  1  0
 11 50  1  0
 13 51  1  0
 14 52  1  0
 14 53  1  0
 17 54  1  0
 17 55  1  0
 18 56  1  0
 19 57  1  0
 19 58  1  0
 19 59  1  0
 20 60  1  0
 20 61  1  0
 21 62  1  0
 22 63  1  0
 23 64  1  0
 24 65  1  0
 24 66  1  0
 25 67  1  0
 27 68  1  0
 27 69  1  0
 29 70  1  0
 29 71  1  0
 29 72  1  0
 30 73  1  0
 30 74  1  0
 31 75  1  0
 34 76  1  0
 34 77  1  0
 37 78  1  0
 38 79  1  0
 40 80  1  0
 42 81  1  0
 43 82  1  0
 44 83  1  0
 45 84  1  0
M  END
> <Name>
CHEMBL2023244

> <IC50 nM>
1.06

> <Molecule_ChEMBL_ID>
CHEMBL2023244

> <Smiles>
C[C@]12Cc3cnn(-c4ccc(F)cc4)c3C=C1CC[C@@H]1[C@@H]2[C@@H](O)C[C@@]2(C)[C@H]1CC[C@]2(O)C(=O)COc1ccc2ccccc2c1

$$$$
CHEMBL2021945
  SciTegic08162514323D

 77 83  0  0  1  0            999 V2000
    6.2380   -0.3280   -2.6480 S   0  0
    7.7680   -0.6990   -2.0350 C   0  0
    5.2620   -0.2270   -1.1990 C   0  0
    7.8690   -0.8200   -0.6780 N   0  0
    8.9040   -0.8810   -2.8520 C   0  0
    3.8420    0.1040   -1.5740 C   0  0
    9.0680   -1.1190   -0.0980 C   0  0
   10.1450   -1.1890   -2.2690 C   0  0
    3.5760    0.5630   -2.6600 O   0  0
    2.7600   -0.1580   -0.5550 C   0  0  2  0  0  0
   10.2270   -1.3090   -0.8730 C   0  0
    2.4530   -1.5410   -0.6310 O   0  0
    1.4860    0.7030   -0.7300 C   0  0  2  0  0  0
    3.1780    0.1720    0.8950 C   0  0
    0.7890    0.4820    0.6210 C   0  0  1  0  0  0
    0.5160    0.3140   -1.8610 C   0  0
    1.9300    2.1680   -0.8710 C   0  0
    1.9320    0.7070    1.6110 C   0  0
   -0.4690    1.3560    0.7830 C   0  0  1  0  0  0
   -0.8440    1.0390   -1.7580 C   0  0  1  0  0  0
   -1.4750    0.9340   -0.3400 C   0  0  2  0  0  0
   -1.0310    1.1800    2.2210 C   0  0
   -0.6930    2.3910   -2.1460 O   0  0
   -2.8590    1.6310   -0.1500 C   0  0  2  0  0  0
   -2.4570    1.7290    2.3930 C   0  0
   -3.2700    1.1640    1.2540 C   0  0
   -3.9020    1.2970   -1.2730 C   0  0
   -2.6860    3.1600   -0.1440 C   0  0
   -4.2290    0.2360    1.4670 C   0  0
   -4.7270    0.0470   -1.0120 C   0  0
   -4.8750   -0.3830    0.2970 C   0  0
   -5.3850   -0.7150   -1.9770 C   0  0
   -5.7030   -1.4510    0.1490 N   0  0
   -5.9810   -1.6330   -1.1720 N   0  0
   -6.1800   -2.2300    1.1540 C   0  0
   -7.5410   -2.5880    1.1840 C   0  0
   -5.3150   -2.6820    2.1700 C   0  0
   -8.0350   -3.3950    2.2250 C   0  0
   -5.8110   -3.4860    3.2090 C   0  0
   -7.1700   -3.8440    3.2380 C   0  0
   -7.6390   -4.6060    4.2230 F   0  0
    5.2930   -1.1800   -0.6720 H   0  0
    5.6620    0.5470   -0.5450 H   0  0
    8.8200   -0.7850   -3.9240 H   0  0
    9.1290   -1.2110    0.9770 H   0  0
   11.0220   -1.3300   -2.8850 H   0  0
   11.1680   -1.5450   -0.4000 H   0  0
    3.2440   -2.0250   -0.3530 H   0  0
    3.9430    0.9360    0.9080 H   0  0
    3.5920   -0.6820    1.4160 H   0  0
    0.4820   -0.5510    0.7030 H   0  0
    0.3180   -0.7580   -1.8260 H   0  0
    0.9750    0.4940   -2.8340 H   0  0
    2.7400    2.4140   -0.1840 H   0  0
    1.1020    2.8440   -0.6620 H   0  0
    2.2770    2.3710   -1.8830 H   0  0
    2.0450    1.7600    1.8240 H   0  0
    1.7500    0.2050    2.5490 H   0  0
   -0.2110    2.4080    0.6540 H   0  0
   -1.5020    0.5800   -2.4920 H   0  0
   -1.6540   -0.1370   -0.2070 H   0  0
   -0.3670    1.6600    2.9420 H   0  0
   -1.0370    0.1190    2.4810 H   0  0
   -0.4650    2.3950   -3.0880 H   0  0
   -2.4630    2.8180    2.3690 H   0  0
   -2.8690    1.4320    3.3580 H   0  0
   -4.6310    2.1060   -1.3300 H   0  0
   -3.4530    1.2620   -2.2640 H   0  0
   -3.5720    3.6470    0.2640 H   0  0
   -1.8180    3.4470    0.4490 H   0  0
   -2.5350    3.5350   -1.1560 H   0  0
   -4.4960   -0.0660    2.4690 H   0  0
   -5.4400   -0.6350   -3.0550 H   0  0
   -8.2230   -2.2540    0.4140 H   0  0
   -4.2660   -2.4180    2.1660 H   0  0
   -9.0800   -3.6660    2.2420 H   0  0
   -5.1430   -3.8300    3.9860 H   0  0
  1  2  1  0
  1  3  1  0
  2  4  2  0
  2  5  1  0
  3  6  1  0
  4  7  1  0
  5  8  2  0
  6  9  2  0
  6 10  1  0
  7 11  2  0
 10 12  1  0
 10 13  1  0
 10 14  1  0
 13 15  1  0
 13 16  1  0
 13 17  1  0
 14 18  1  0
 15 19  1  0
 16 20  1  0
 21 19  1  0
 19 22  1  0
 20 23  1  0
 21 24  1  0
 22 25  1  0
 24 26  1  0
 24 27  1  0
 24 28  1  0
 26 29  2  0
 27 30  1  0
 29 31  1  0
 30 32  1  0
 31 33  1  0
 32 34  2  0
 33 35  1  0
 35 36  2  0
 35 37  1  0
 36 38  1  0
 37 39  2  0
 38 40  2  0
 40 41  1  0
  8 11  1  0
 15 18  1  0
 20 21  1  0
 25 26  1  0
 30 31  2  0
 33 34  1  0
 39 40  1  0
  3 42  1  0
  3 43  1  0
  5 44  1  0
  7 45  1  0
  8 46  1  0
 11 47  1  0
 12 48  1  0
 14 49  1  0
 14 50  1  0
 15 51  1  0
 16 52  1  0
 16 53  1  0
 17 54  1  0
 17 55  1  0
 17 56  1  0
 18 57  1  0
 18 58  1  0
 19 59  1  0
 20 60  1  0
 21 61  1  0
 22 62  1  0
 22 63  1  0
 23 64  1  0
 25 65  1  0
 25 66  1  0
 27 67  1  0
 27 68  1  0
 28 69  1  0
 28 70  1  0
 28 71  1  0
 29 72  1  0
 32 73  1  0
 36 74  1  0
 37 75  1  0
 38 76  1  0
 39 77  1  0
M  END
> <Name>
CHEMBL2021945

> <IC50 nM>
0.5

> <Molecule_ChEMBL_ID>
CHEMBL2021945

> <Smiles>
C[C@]12Cc3cnn(-c4ccc(F)cc4)c3C=C1CC[C@@H]1[C@@H]2[C@@H](O)C[C@@]2(C)[C@H]1CC[C@]2(O)C(=O)CSc1ccccn1

$$$$
CHEMBL2022862
  SciTegic08162514323D

 82 89  0  0  1  0            999 V2000
    5.3690   -1.6860    2.2170 S   0  0
    7.0200   -1.3320    2.3010 C   0  0
    4.9320   -1.0920    0.6290 C   0  0
    7.9670   -0.7460    1.4710 N   0  0
    7.4530   -1.7870    3.5800 C   0  0
    3.4960   -1.4410    0.3420 C   0  0
    9.2870   -0.6050    1.8610 C   0  0
    8.7660   -1.6560    3.9940 N   0  0
    3.1890   -2.5450   -0.0450 O   0  0
    2.4510   -0.3690    0.5470 C   0  0  2  0  0  0
    9.6950   -1.0720    3.1540 C   0  0
   10.2380   -0.0060    1.0000 C   0  0
    2.2500   -0.2620    1.9470 O   0  0
    1.1030   -0.6350   -0.1620 C   0  0  2  0  0  0
    2.8590    1.0120   -0.0200 C   0  0
   11.0470   -0.9280    3.5550 C   0  0
   11.5840    0.1310    1.4120 C   0  0
    0.4900    0.7810   -0.0840 C   0  0  1  0  0  0
    0.1310   -1.6930    0.4120 C   0  0
    1.4350   -1.0080   -1.6210 C   0  0
    1.6070    1.6520   -0.6430 C   0  0
   11.9860   -0.3280    2.6860 C   0  0
   -0.9020    0.7150   -0.7210 C   0  0  1  0  0  0
   -1.0900   -1.0680    1.1210 C   0  0  1  0  0  0
   -1.8670    0.0140    0.2770 C   0  0  2  0  0  0
   -1.4690    2.0720   -1.1190 C   0  0
   -1.8950   -2.1130    1.6210 O   0  0
   -3.2270   -0.3380   -0.4320 C   0  0  2  0  0  0
   -2.7760    1.8570   -1.8810 C   0  0
   -3.7480    0.9000   -1.2090 C   0  0
   -4.2740   -0.9020    0.6020 C   0  0
   -2.9750   -1.4200   -1.4920 C   0  0
   -5.0690    1.1660   -1.3420 C   0  0
   -5.7330   -0.6910    0.2300 C   0  0
   -6.0470    0.3050   -0.6700 C   0  0
   -6.8150   -1.4100    0.7380 C   0  0
   -7.4050    0.2290   -0.7150 N   0  0
   -7.8320   -0.7710    0.1000 N   0  0
   -8.2170    1.0240   -1.4570 C   0  0
   -9.3770    1.5780   -0.8830 C   0  0
   -7.9050    1.2950   -2.8030 C   0  0
  -10.2190    2.4000   -1.6520 C   0  0
   -8.7480    2.1170   -3.5700 C   0  0
   -9.9050    2.6700   -2.9940 C   0  0
    5.0640   -0.0120    0.5960 H   0  0
    5.5800   -1.5470   -0.1210 H   0  0
    6.7540   -2.2480    4.2620 H   0  0
    9.9490    0.3540    0.0210 H   0  0
    3.0760    0.0740    2.3300 H   0  0
    3.2850    1.6560    0.7400 H   0  0
    3.6170    0.9140   -0.7830 H   0  0
   11.3750   -1.2730    4.5250 H   0  0
   12.3070    0.5900    0.7520 H   0  0
    0.3530    1.1020    0.9410 H   0  0
    0.6700   -2.3590    1.0880 H   0  0
   -0.2380   -2.3320   -0.3910 H   0  0
    2.1990   -0.3550   -2.0430 H   0  0
    0.5470   -0.9300   -2.2500 H   0  0
    1.7990   -2.0330   -1.6840 H   0  0
    1.4940    2.6900   -0.3610 H   0  0
    1.6410    1.6060   -1.7210 H   0  0
   13.0160   -0.2210    2.9960 H   0  0
   -0.8320    0.1250   -1.6350 H   0  0
   -0.7090   -0.5740    2.0160 H   0  0
   -2.1390    0.7660    1.0190 H   0  0
   -1.6370    2.6880   -0.2340 H   0  0
   -0.7640    2.6130   -1.7500 H   0  0
   -1.3690   -2.5880    2.2810 H   0  0
   -2.5490    1.4670   -2.8730 H   0  0
   -3.2460    2.8300   -2.0430 H   0  0
   -4.1450   -1.9770    0.7440 H   0  0
   -4.1250   -0.4360    1.5760 H   0  0
   -3.9160   -1.7750   -1.9100 H   0  0
   -2.3520   -1.0330   -2.2970 H   0  0
   -2.4610   -2.2750   -1.0550 H   0  0
   -5.4060    2.0020   -1.9380 H   0  0
   -6.8770   -2.2340    1.4350 H   0  0
   -9.6370    1.3830    0.1480 H   0  0
   -7.0200    0.8790   -3.2640 H   0  0
  -11.1080    2.8260   -1.2110 H   0  0
   -8.5080    2.3240   -4.6020 H   0  0
  -10.5530    3.3010   -3.5860 H   0  0
  1  2  1  0
  1  3  1  0
  2  4  2  0
  2  5  1  0
  3  6  1  0
  4  7  1  0
  5  8  2  0
  6  9  2  0
  6 10  1  0
  7 11  1  0
  7 12  2  0
 10 13  1  0
 10 14  1  0
 10 15  1  0
 11 16  2  0
 12 17  1  0
 14 18  1  0
 14 19  1  0
 14 20  1  0
 15 21  1  0
 16 22  1  0
 18 23  1  0
 19 24  1  0
 25 23  1  0
 23 26  1  0
 24 27  1  0
 25 28  1  0
 26 29  1  0
 28 30  1  0
 28 31  1  0
 28 32  1  0
 30 33  2  0
 31 34  1  0
 33 35  1  0
 34 36  1  0
 35 37  1  0
 36 38  2  0
 37 39  1  0
 39 40  2  0
 39 41  1  0
 40 42  1  0
 41 43  2  0
 42 44  2  0
  8 11  1  0
 17 22  2  0
 18 21  1  0
 24 25  1  0
 29 30  1  0
 34 35  2  0
 37 38  1  0
 43 44  1  0
  3 45  1  0
  3 46  1  0
  5 47  1  0
 12 48  1  0
 13 49  1  0
 15 50  1  0
 15 51  1  0
 16 52  1  0
 17 53  1  0
 18 54  1  0
 19 55  1  0
 19 56  1  0
 20 57  1  0
 20 58  1  0
 20 59  1  0
 21 60  1  0
 21 61  1  0
 22 62  1  0
 23 63  1  0
 24 64  1  0
 25 65  1  0
 26 66  1  0
 26 67  1  0
 27 68  1  0
 29 69  1  0
 29 70  1  0
 31 71  1  0
 31 72  1  0
 32 73  1  0
 32 74  1  0
 32 75  1  0
 33 76  1  0
 36 77  1  0
 40 78  1  0
 41 79  1  0
 42 80  1  0
 43 81  1  0
 44 82  1  0
M  END
> <Name>
CHEMBL2022862

> <IC50 nM>
5.36

> <Molecule_ChEMBL_ID>
CHEMBL2022862

> <Smiles>
C[C@]12Cc3cnn(-c4ccccc4)c3C=C1CC[C@@H]1[C@@H]2[C@@H](O)C[C@@]2(C)[C@H]1CC[C@]2(O)C(=O)CSc1cnc2ccccc2n1

$$$$
CHEMBL1917242
  SciTegic08162514323D

 68 73  0  0  1  0            999 V2000
   -4.5840   -2.5700    1.0120 S   0  0
   -5.2540   -2.2380   -0.5650 C   0  0
   -5.3050   -4.0510    0.8650 C   0  0
   -5.2720   -0.9670   -1.6760 S   0  0
   -6.0020   -3.3010   -1.1150 N   0  0
   -6.0260   -4.3690   -0.2600 C   0  0
   -5.1930   -5.0180    1.8980 C   0  0
   -4.3200    0.2600   -0.8670 C   0  0
   -6.6620   -5.6210   -0.4340 C   0  0
   -5.8130   -6.2830    1.7660 C   0  0
   -2.8580   -0.0180   -1.0820 C   0  0
   -6.5510   -6.5880    0.5960 C   0  0
   -2.4730   -1.1190   -1.3990 O   0  0
   -1.8830    1.1210   -0.8910 C   0  0  2  0  0  0
   -1.8990    1.8850   -2.0860 O   0  0
   -0.4410    0.6860   -0.5310 C   0  0  2  0  0  0
   -2.2420    2.0470    0.2890 C   0  0
    0.1660    2.0100   -0.0510 C   0  0  1  0  0  0
    0.4550    0.1560   -1.6660 C   0  0
   -0.5370   -0.3200    0.6310 C   0  0
   -0.9200    2.5610    0.8730 C   0  0
    1.5700    1.8360    0.5530 C   0  0  1  0  0  0
    1.9300   -0.0160   -1.2250 C   0  0  1  0  0  0
    2.5140    1.2500   -0.5270 C   0  0  2  0  0  0
    2.0720    3.2190    1.0020 C   0  0
    2.0310   -1.1580   -0.3950 O   0  0
    3.9920    1.1210   -0.0270 C   0  0  2  0  0  0
    3.5060    3.1620    1.5330 C   0  0
    4.4610    2.4300    0.6110 C   0  0
    4.8970    0.7250   -1.2230 C   0  0
    4.1250    0.0720    1.0880 C   0  0
    5.6970    2.9320    0.3940 C   0  0
    6.3970    0.8630   -0.9320 C   0  0
    6.7150    2.2420   -0.4140 C   0  0
    7.7730    2.7730   -0.6560 O   0  0
   -4.6310   -4.7890    2.7910 H   0  0
   -4.5740    1.2400   -1.2700 H   0  0
   -4.5470    0.2500    0.1990 H   0  0
   -7.2230   -5.8420   -1.3300 H   0  0
   -5.7250   -7.0180    2.5530 H   0  0
   -7.0280   -7.5510    0.4880 H   0  0
   -2.7850    2.2700   -2.1680 H   0  0
   -2.7720    1.5020    1.0570 H   0  0
   -2.8930    2.8630   -0.0020 H   0  0
    0.2520    2.6860   -0.8930 H   0  0
    0.0570   -0.7810   -2.0610 H   0  0
    0.4410    0.8540   -2.5040 H   0  0
   -1.2990   -0.0310    1.3550 H   0  0
    0.4140   -0.3930    1.1580 H   0  0
   -0.7890   -1.3130    0.2600 H   0  0
   -0.8910    3.6390    0.9220 H   0  0
   -0.7870    2.1880    1.8790 H   0  0
    1.5310    1.1680    1.4120 H   0  0
    2.5180   -0.2440   -2.1130 H   0  0
    2.5410    2.0020   -1.3180 H   0  0
    1.4220    3.6270    1.7750 H   0  0
    2.0290    3.9160    0.1640 H   0  0
    1.8400   -1.9320   -0.9470 H   0  0
    3.8540    4.1780    1.7190 H   0  0
    3.5100    2.6580    2.5000 H   0  0
    4.6910   -0.2990   -1.5330 H   0  0
    4.6580    1.3540   -2.0820 H   0  0
    5.0470    0.2210    1.6480 H   0  0
    3.2790    0.1290    1.7730 H   0  0
    4.1480   -0.9340    0.6700 H   0  0
    5.9650    3.8810    0.8380 H   0  0
    6.7070    0.1230   -0.1910 H   0  0
    6.9730    0.6660   -1.8360 H   0  0
  1  2  1  0
  1  3  1  0
  2  4  1  0
  2  5  2  0
  3  6  1  0
  3  7  2  0
  4  8  1  0
  6  9  2  0
  7 10  1  0
  8 11  1  0
  9 12  1  0
 11 13  2  0
 11 14  1  0
 14 15  1  0
 14 16  1  0
 14 17  1  0
 16 18  1  0
 16 19  1  0
 16 20  1  0
 17 21  1  0
 18 22  1  0
 19 23  1  0
 24 22  1  0
 22 25  1  0
 23 26  1  0
 24 27  1  0
 25 28  1  0
 27 29  1  0
 27 30  1  0
 27 31  1  0
 29 32  2  0
 30 33  1  0
 32 34  1  0
 34 35  2  0
  5  6  1  0
 10 12  2  0
 18 21  1  0
 23 24  1  0
 28 29  1  0
 33 34  1  0
  7 36  1  0
  8 37  1  0
  8 38  1  0
  9 39  1  0
 10 40  1  0
 12 41  1  0
 15 42  1  0
 17 43  1  0
 17 44  1  0
 18 45  1  0
 19 46  1  0
 19 47  1  0
 20 48  1  0
 20 49  1  0
 20 50  1  0
 21 51  1  0
 21 52  1  0
 22 53  1  0
 23 54  1  0
 24 55  1  0
 25 56  1  0
 25 57  1  0
 26 58  1  0
 28 59  1  0
 28 60  1  0
 30 61  1  0
 30 62  1  0
 31 63  1  0
 31 64  1  0
 31 65  1  0
 32 66  1  0
 33 67  1  0
 33 68  1  0
M  END
> <Name>
CHEMBL1917242

> <IC50 nM>
4.8

> <Molecule_ChEMBL_ID>
CHEMBL1917242

> <Smiles>
C[C@]12CCC(=O)C=C1CC[C@@H]1[C@@H]2[C@@H](O)C[C@@]2(C)[C@H]1CC[C@]2(O)C(=O)CSc1nc2ccccc2s1

$$$$
CHEMBL235208
  SciTegic08162514323D

 61 63  0  0  1  0            999 V2000
   -0.6870    4.4180    1.3730 F   0  0
   -1.6820    3.7440    0.7990 C   0  0
   -1.9470    2.4180    1.1840 C   0  0
   -2.4650    4.3560   -0.1930 C   0  0
   -2.9980    1.7050    0.5780 C   0  0
   -3.5140    3.6450   -0.8010 C   0  0
   -3.7830    2.3180   -0.4180 C   0  0
   -3.2700    0.3030    0.9940 C   0  0
   -4.7700    1.6580   -0.9940 O   0  0
   -2.6050   -0.3110   -0.2380 C   0  0
   -4.7700    0.0180    1.0590 C   0  0
   -2.5450   -0.0490    2.2930 C   0  0
   -5.5270    2.3300   -1.9900 C   0  0
   -2.4590   -1.8300   -0.1350 C   0  0  1  0  0  0
   -3.5610   -2.3300    0.5900 O   0  0
   -2.5410   -2.3730   -1.5620 C   0  0
   -1.1800   -2.2520    0.5860 C   0  0
   -2.2110   -3.7050   -1.5620 F   0  0
   -1.6660   -1.6860   -2.3630 F   0  0
   -3.8160   -2.2190   -2.0390 F   0  0
    0.0020   -1.6350   -0.0330 N   0  0
    1.2330   -1.8320    0.5250 C   0  0
    1.3500   -2.5080    1.5200 O   0  0
    2.4060   -1.2210   -0.0860 C   0  0
    3.7440   -1.3300    0.3650 C   0  0
    2.4060   -0.4100   -1.2400 C   0  0
    4.4880   -0.6040   -0.5080 N   0  0
    4.2030   -2.0880    1.5450 N   0  0
    3.6930   -0.0700   -1.4390 N   0  0
    5.8360   -0.4260   -0.4630 C   0  0
    6.6900   -1.5370   -0.3380 C   0  0
    6.3810    0.8710   -0.5430 C   0  0
    8.0820   -1.3540   -0.2930 C   0  0
    7.7740    1.0530   -0.4980 C   0  0
    8.6250   -0.0590   -0.3730 C   0  0
    9.9440    0.1150   -0.3300 F   0  0
   -1.3440    1.9490    1.9470 H   0  0
   -2.2660    5.3750   -0.4940 H   0  0
   -4.1130    4.1170   -1.5620 H   0  0
   -1.6390    0.1560   -0.4300 H   0  0
   -3.1460   -0.0370   -1.1440 H   0  0
   -5.3440    0.9100    1.3130 H   0  0
   -4.9860   -0.7400    1.8130 H   0  0
   -5.1350   -0.3520    0.1000 H   0  0
   -2.7770    0.6540    3.0920 H   0  0
   -1.4650   -0.0410    2.1450 H   0  0
   -2.8280   -1.0450    2.6330 H   0  0
   -6.0330    3.1760   -1.5230 H   0  0
   -4.8630    2.5640   -2.8220 H   0  0
   -6.2930    1.6450   -2.3550 H   0  0
   -3.4920   -3.2970    0.5840 H   0  0
   -1.0660   -3.3360    0.5680 H   0  0
   -1.2210   -1.9730    1.6390 H   0  0
   -0.0940   -1.0740   -0.8570 H   0  0
    1.5760   -0.1020   -1.8610 H   0  0
    5.1620   -2.0980    1.8300 H   0  0
    3.5490   -2.6150    2.0860 H   0  0
    6.2930   -2.5410   -0.2750 H   0  0
    5.7420    1.7380   -0.6390 H   0  0
    8.7350   -2.2090   -0.1970 H   0  0
    8.1860    2.0490   -0.5590 H   0  0
  1  2  1  0
  2  3  2  0
  2  4  1  0
  3  5  1  0
  4  6  2  0
  5  7  2  0
  5  8  1  0
  7  9  1  0
  8 10  1  0
  8 11  1  0
  8 12  1  0
  9 13  1  0
 10 14  1  0
 14 15  1  0
 14 16  1  0
 14 17  1  0
 16 18  1  0
 16 19  1  0
 16 20  1  0
 17 21  1  0
 21 22  1  0
 22 23  2  0
 22 24  1  0
 24 25  2  0
 24 26  1  0
 25 27  1  0
 25 28  1  0
 26 29  2  0
 27 30  1  0
 30 31  2  0
 30 32  1  0
 31 33  1  0
 32 34  2  0
 33 35  2  0
 35 36  1  0
  6  7  1  0
 27 29  1  0
 34 35  1  0
  3 37  1  0
  4 38  1  0
  6 39  1  0
 10 40  1  0
 10 41  1  0
 11 42  1  0
 11 43  1  0
 11 44  1  0
 12 45  1  0
 12 46  1  0
 12 47  1  0
 13 48  1  0
 13 49  1  0
 13 50  1  0
 15 51  1  0
 17 52  1  0
 17 53  1  0
 21 54  1  0
 26 55  1  0
 28 56  1  0
 28 57  1  0
 31 58  1  0
 32 59  1  0
 33 60  1  0
 34 61  1  0
M  END
> <Name>
CHEMBL235208

> <IC50 nM>
5.5

> <Molecule_ChEMBL_ID>
CHEMBL235208

> <Smiles>
COc1ccc(F)cc1C(C)(C)CC(O)(CNC(=O)c1cnn(-c2ccc(F)cc2)c1N)C(F)(F)F

$$$$
CHEMBL1094514
  SciTegic08162514323D

 45 48  0  0  1  0            999 V2000
   -1.6500   -6.0940   -1.1290 F   0  0
   -1.8460   -4.8520   -0.6860 C   0  0
   -1.4900   -3.7460   -1.4820 C   0  0
   -2.4100   -4.6490    0.5860 C   0  0
   -1.7010   -2.4390   -1.0020 C   0  0
   -0.8930   -3.9450   -2.8300 C   0  0
   -2.6210   -3.3440    1.0620 C   0  0
   -2.2660   -2.2380    0.2690 C   0  0
   -2.4880   -0.8590    0.7730 C   0  0  1  0  0  0
   -2.8890   -0.9120    2.1250 O   0  0
   -1.2400   -0.0880    0.6620 C   0  0
   -3.6190   -0.2210   -0.0350 C   0  0
    0.0080   -0.7660    0.6330 C   0  0
   -1.2870    1.3300    0.5840 C   0  0
   -4.5940   -1.1540   -0.2720 F   0  0
   -3.1230    0.2360   -1.2290 F   0  0
   -4.1500    0.8280    0.6700 F   0  0
    1.2050   -0.0100    0.5250 C   0  0
   -0.0900    2.0780    0.4780 C   0  0
    1.1330    1.3670    0.4510 C   0  0
    2.4590   -0.6000    0.4900 C   0  0
    2.4390    1.7230    0.3610 N   0  0
    3.1900    0.5660    0.3850 N   0  0
    2.9380    2.9820    0.2640 C   0  0
    2.4000    4.0180    1.0550 C   0  0
    3.9920    3.2600   -0.6290 C   0  0
    2.9180    5.3200    0.9530 C   0  0
    4.5060    4.5630   -0.7290 C   0  0
    3.9690    5.5940    0.0620 C   0  0
    4.4570    6.8280   -0.0330 F   0  0
   -2.6840   -5.4940    1.1990 H   0  0
   -1.4300   -1.5900   -1.6110 H   0  0
   -0.7070   -2.9770   -3.2930 H   0  0
    0.0100   -4.5510   -2.7400 H   0  0
   -1.5960   -4.4880   -3.4630 H   0  0
   -3.0550   -3.1950    2.0410 H   0  0
   -2.1190   -1.2010    2.6410 H   0  0
    0.0410   -1.8460    0.6910 H   0  0
   -2.2380    1.8460    0.6070 H   0  0
   -0.1130    3.1560    0.4180 H   0  0
    2.8090   -1.6230    0.5270 H   0  0
    1.5920    3.8260    1.7440 H   0  0
    4.4180    2.4790   -1.2440 H   0  0
    2.5020    6.1110    1.5620 H   0  0
    5.3150    4.7700   -1.4140 H   0  0
  1  2  1  0
  2  3  2  0
  2  4  1  0
  3  5  1  0
  3  6  1  0
  4  7  2  0
  5  8  2  0
  8  9  1  0
  9 10  1  0
  9 11  1  0
  9 12  1  0
 11 13  2  0
 11 14  1  0
 12 15  1  0
 12 16  1  0
 12 17  1  0
 13 18  1  0
 14 19  2  0
 18 20  2  0
 18 21  1  0
 20 22  1  0
 21 23  2  0
 22 24  1  0
 24 25  2  0
 24 26  1  0
 25 27  1  0
 26 28  2  0
 27 29  2  0
 29 30  1  0
  7  8  1  0
 19 20  1  0
 22 23  1  0
 28 29  1  0
  4 31  1  0
  5 32  1  0
  6 33  1  0
  6 34  1  0
  6 35  1  0
  7 36  1  0
 10 37  1  0
 13 38  1  0
 14 39  1  0
 19 40  1  0
 21 41  1  0
 25 42  1  0
 26 43  1  0
 27 44  1  0
 28 45  1  0
M  END
> <Name>
CHEMBL1094514

> <IC50 nM>
59

> <Molecule_ChEMBL_ID>
CHEMBL1094514

> <Smiles>
Cc1cc(C(O)(c2ccc3c(cnn3-c3ccc(F)cc3)c2)C(F)(F)F)ccc1F

$$$$
CHEMBL292721
  SciTegic08162514323D

 40 43  0  0  1  0            999 V2000
    1.4280    1.1620   -0.2440 O   0  0
    2.0450    0.0100    0.0760 C   0  0
    0.1210    1.4800    0.2540 C   0  0  2  0  0  0
    1.3010   -1.1330    0.4980 C   0  0
    3.4530   -0.0450   -0.0230 C   0  0
   -0.7670    0.2810    0.3970 C   0  0
   -0.4430    2.5270   -0.6480 C   0  0
    2.0220   -2.3090    0.8890 C   0  0
   -0.1810   -1.0200    0.4960 C   0  0
    4.1470   -1.2210    0.3300 C   0  0
   -2.1810    0.4200    0.4570 C   0  0
   -0.9120    3.7400   -0.1110 C   0  0
   -0.5080    2.3010   -2.0350 C   0  0
    1.4160   -3.4020    1.3710 O   0  0
    3.4320   -2.3440    0.7930 C   0  0
   -1.0390   -2.1520    0.5840 C   0  0
   -3.0230   -0.7110    0.5760 C   0  0
   -1.4430    4.7250   -0.9630 C   0  0
   -1.0390    3.2870   -2.8850 C   0  0
    2.0960   -4.6450    1.2560 C   0  0
   -2.4410   -1.9980    0.6330 C   0  0
   -4.3550   -0.5660    0.6330 N   0  0
   -1.5060    4.5000   -2.3480 C   0  0
    0.2460    1.9180    1.2460 H   0  0
    4.0040    0.8160   -0.3710 H   0  0
    5.2230   -1.2600    0.2480 H   0  0
   -2.6270    1.4060    0.4160 H   0  0
   -0.8650    3.9200    0.9510 H   0  0
   -0.1500    1.3710   -2.4530 H   0  0
    3.9690   -3.2380    1.0760 H   0  0
   -0.6740   -3.1640    0.6130 H   0  0
   -1.8030    5.6560   -0.5510 H   0  0
   -1.0880    3.1130   -3.9490 H   0  0
    1.3990   -5.4420    1.5160 H   0  0
    2.5430   -4.6990    0.2640 H   0  0
    2.9050   -4.6600    1.9880 H   0  0
   -3.0600   -2.8810    0.7110 H   0  0
   -4.9710   -1.3500    0.7170 H   0  0
   -4.7620    0.3480    0.5920 H   0  0
   -1.9140    5.2580   -3.0000 H   0  0
  1  2  1  0
  1  3  1  0
  2  4  2  0
  2  5  1  0
  3  6  1  0
  3  7  1  0
  4  8  1  0
  4  9  1  0
  5 10  2  0
  6 11  2  0
  7 12  2  0
  7 13  1  0
  8 14  1  0
  8 15  2  0
  9 16  2  0
 11 17  1  0
 12 18  1  0
 13 19  2  0
 14 20  1  0
 16 21  1  0
 17 22  1  0
 18 23  2  0
  6  9  1  0
 10 15  1  0
 17 21  2  0
 19 23  1  0
  3 24  1  0
  5 25  1  0
 10 26  1  0
 11 27  1  0
 12 28  1  0
 13 29  1  0
 15 30  1  0
 16 31  1  0
 18 32  1  0
 19 33  1  0
 20 34  1  0
 20 35  1  0
 20 36  1  0
 21 37  1  0
 22 38  1  0
 22 39  1  0
 23 40  1  0
M  END
> <Name>
CHEMBL292721

> <IC50 nM>
1937

> <Molecule_ChEMBL_ID>
CHEMBL292721

> <Smiles>
COc1cccc2c1-c1ccc(N)cc1C(c1ccccc1)O2

$$$$
CHEMBL63241
  SciTegic08162514323D

 74 78  0  0  1  0            999 V2000
    4.3520    2.3690    0.7520 S   0  0
    3.5350    2.8300    2.3070 C   0  0  3  0  0  0
    3.5390    0.7690    0.4790 C   0  0
    3.6930    1.7170    3.3050 C   0  0
    2.0700    3.1970    2.0680 C   0  0
    3.0160    0.7070   -0.9320 C   0  0
    4.4690    0.8100    3.1090 O   0  0
    2.9900    1.7910    4.3130 O   0  5
    1.9060    4.3480    1.0740 C   0  0
    3.4060    1.4780   -1.7750 O   0  0
    1.9820   -0.3520   -1.2620 C   0  0  2  0  0  0
    0.5330    4.6520    0.9770 O   0  0
    2.2750   -0.8870   -2.5430 O   0  0
    0.4980    0.1030   -1.1470 C   0  0  2  0  0  0
    2.1090   -1.5670   -0.3300 C   0  0  2  0  0  0
    2.8650   -2.1640   -2.4240 C   0  0
    0.1970   -0.2930    0.3130 C   0  0  3  0  0  0
   -0.4920   -0.6110   -2.1020 C   0  0
    0.3890    1.6250   -1.2990 C   0  0
    2.2930   -2.6410   -1.2300 O   0  0
    0.8030   -1.6950    0.4510 C   0  0
    4.3770   -2.0240   -2.2560 C   0  0
    2.4510   -3.0470   -3.5920 C   0  0
   -1.2910   -0.1230    0.6820 C   0  0  3  0  0  0
   -1.9880   -0.4360   -1.7460 C   0  0  1  0  0  0
   -2.2930   -0.8300   -0.2750 C   0  0  1  0  0  0
   -1.5700   -0.3480    2.1880 C   0  0
   -2.3810    0.9000   -2.0080 O   0  0
   -2.0900   -2.1920   -0.2480 F   0  0
   -3.7540   -0.6080    0.2340 C   0  0  2  0  0  0
   -2.6930   -1.3500    2.5220 C   0  0  1  0  0  0
   -3.8980   -1.2910    1.5980 C   0  0
   -4.8160   -1.0780   -0.7560 C   0  0
   -4.0530    0.8830    0.4610 C   0  0
   -2.1580   -2.6150    2.4940 F   0  0
   -5.0630   -1.8540    1.9860 C   0  0
   -5.9590   -1.6720   -0.3570 C   0  0
   -6.1970   -1.9630    1.0610 C   0  0
   -7.2910   -2.2950    1.4530 O   0  0
    3.9860    3.7440    2.6950 H   0  0
    4.2580   -0.0350    0.6430 H   0  0
    2.7170    0.6540    1.1860 H   0  0
    1.5740    3.4280    3.0100 H   0  0
    1.5020    2.3260    1.7460 H   0  0
    2.2600    4.0570    0.0860 H   0  0
    2.4260    5.2380    1.4260 H   0  0
    0.4450    5.3850    0.3460 H   0  0
    2.9730   -1.5040    0.3180 H   0  0
    0.7640    0.3590    0.9670 H   0  0
   -0.3180   -0.2830   -3.1270 H   0  0
   -0.2770   -1.6820   -2.1090 H   0  0
   -0.5960    1.9920   -1.0100 H   0  0
    0.5660    1.9220   -2.3320 H   0  0
    1.1290    2.1290   -0.6760 H   0  0
    0.9750   -1.9630    1.4840 H   0  0
    0.1720   -2.4590    0.0250 H   0  0
    4.6600   -1.9040   -1.2090 H   0  0
    4.7460   -1.1540   -2.8010 H   0  0
    4.8910   -2.9020   -2.6410 H   0  0
    1.3650   -3.1110   -3.6600 H   0  0
    2.8460   -2.6540   -4.5290 H   0  0
    2.8380   -4.0590   -3.4650 H   0  0
   -1.4670    0.9450    0.5370 H   0  0
   -2.5700   -1.0550   -2.4300 H   0  0
   -0.6580   -0.6350    2.7130 H   0  0
   -1.8460    0.6110    2.6270 H   0  0
   -3.1890    0.8610   -2.5430 H   0  0
   -3.0200   -1.1600    3.5450 H   0  0
   -4.6680   -0.9360   -1.8160 H   0  0
   -5.0410    1.0350    0.8960 H   0  0
   -4.0160    1.4320   -0.4790 H   0  0
   -3.3200    1.3240    1.1370 H   0  0
   -5.1640   -2.2500    2.9860 H   0  0
   -6.7050   -1.9400   -1.0900 H   0  0
  1  2  1  0
  1  3  1  0
  2  4  1  0
  2  5  1  0
  3  6  1  0
  4  7  2  0
  4  8  1  0
  5  9  1  0
  6 10  2  0
 11  6  1  0
  9 12  1  0
 11 13  1  0
 11 14  1  0
 11 15  1  0
 13 16  1  0
 14 17  1  0
 14 18  1  0
 14 19  1  0
 15 20  1  0
 15 21  1  0
 16 22  1  0
 16 23  1  0
 17 24  1  0
 18 25  1  0
 24 26  1  0
 24 27  1  0
 25 28  1  0
 26 29  1  0
 26 30  1  0
 27 31  1  0
 30 32  1  0
 30 33  1  0
 30 34  1  0
 31 35  1  0
 32 36  2  0
 33 37  2  0
 36 38  1  0
 38 39  2  0
 16 20  1  0
 17 21  1  0
 25 26  1  0
 31 32  1  0
 37 38  1  0
  2 40  1  0
  3 41  1  0
  3 42  1  0
  5 43  1  0
  5 44  1  0
  9 45  1  0
  9 46  1  0
 12 47  1  0
 15 48  1  0
 17 49  1  0
 18 50  1  0
 18 51  1  0
 19 52  1  0
 19 53  1  0
 19 54  1  0
 21 55  1  0
 21 56  1  0
 22 57  1  0
 22 58  1  0
 22 59  1  0
 23 60  1  0
 23 61  1  0
 23 62  1  0
 24 63  1  0
 25 64  1  0
 27 65  1  0
 27 66  1  0
 28 67  1  0
 31 68  1  0
 33 69  1  0
 34 70  1  0
 34 71  1  0
 34 72  1  0
 36 73  1  0
 37 74  1  0
M  CHG  1   8  -1
M  END
> <Name>
CHEMBL63241

> <IC50 nM>
194

> <Molecule_ChEMBL_ID>
CHEMBL63241

> <Smiles>
CC1(C)O[C@@H]2CC3C4C[C@H](F)C5=CC(=O)C=C[C@]5(C)[C@@]4(F)[C@@H](O)C[C@]3(C)[C@]2(C(=O)CSC(CCO)C(=O)[O-])O1.[Na+]

$$$$
CHEMBL211854
  SciTegic08162514323D

 53 56  0  0  1  0            999 V2000
    3.7700   -6.1970    0.4390 F   0  0
    3.6970   -4.8670    0.4020 C   0  0
    2.4450   -4.2150    0.2340 C   0  0
    4.8850   -4.1110    0.5350 C   0  0
    2.3970   -2.7870    0.1930 C   0  0
    1.2090   -5.0390    0.1150 C   0  0
    4.8340   -2.7010    0.5080 C   0  0
    3.5980   -2.0430    0.3380 C   0  0
    1.1170   -2.0490   -0.0080 C   0  0  3  0  0  0
   -0.0180   -4.2680   -0.3980 C   0  0
   -0.1250   -2.9080    0.2910 C   0  0
    1.0570   -1.4840   -1.4320 C   0  0
    0.9430    0.0410   -1.4570 C   0  0  3  0  0  0
    2.1110    0.5800   -0.8790 O   0  0
   -0.2640    0.5390   -0.7090 C   0  0
    0.8110    0.6000   -2.8750 C   0  0
   -1.2170   -0.1800   -0.5160 O   0  0
   -0.2660    1.8240   -0.2480 N   0  0
    0.8810    1.9670   -2.8360 F   0  0
   -0.3950    0.2190   -3.4040 F   0  0
    1.8260    0.1110   -3.6540 F   0  0
   -1.3280    2.2970    0.4200 C   0  0
   -1.8050    3.6110    0.1740 C   0  0
   -1.9840    1.4840    1.3850 C   0  0
   -2.9280    4.1040    0.8850 C   0  0
   -3.1060    1.9750    2.0940 C   0  0
   -3.5700    3.2870    1.8380 C   0  0
   -3.4590    5.4790    0.6560 C   0  0
   -4.7440    3.8610    2.5530 C   0  0
   -4.4820    5.9010    1.3200 N   0  0
   -2.8200    6.4060   -0.3480 C   0  0
   -5.3590    3.2340    3.3850 O   0  0
   -5.2010    5.1150    2.3220 O   0  0
    5.8360   -4.6110    0.6600 H   0  0
    0.9820   -5.4450    1.1020 H   0  0
    1.3850   -5.8930   -0.5390 H   0  0
    5.7420   -2.1270    0.6130 H   0  0
    3.5700   -0.9630    0.3200 H   0  0
    1.0940   -1.2030    0.6820 H   0  0
    0.0590   -4.1250   -1.4770 H   0  0
   -0.9220   -4.8520   -0.2300 H   0  0
   -1.0310   -2.3910   -0.0290 H   0  0
   -0.2270   -3.0550    1.3690 H   0  0
    1.9180   -1.8160   -2.0140 H   0  0
    0.2420   -1.9410   -1.9940 H   0  0
    2.8610    0.2830   -1.4180 H   0  0
    0.5230    2.4180   -0.4100 H   0  0
   -1.3130    4.2360   -0.5590 H   0  0
   -1.6370    0.4810    1.5880 H   0  0
   -3.5960    1.3460    2.8240 H   0  0
   -3.3950    7.3300   -0.4140 H   0  0
   -1.7830    6.5980   -0.0680 H   0  0
   -2.8200    5.9420   -1.3320 H   0  0
  1  2  1  0
  2  3  2  0
  2  4  1  0
  3  5  1  0
  3  6  1  0
  4  7  2  0
  5  8  2  0
  5  9  1  0
  6 10  1  0
  9 11  1  0
  9 12  1  0
 12 13  1  0
 13 14  1  0
 13 15  1  0
 13 16  1  0
 15 17  2  0
 15 18  1  0
 16 19  1  0
 16 20  1  0
 16 21  1  0
 18 22  1  0
 22 23  2  0
 22 24  1  0
 23 25  1  0
 24 26  2  0
 25 27  2  0
 25 28  1  0
 27 29  1  0
 28 30  2  0
 28 31  1  0
 29 32  2  0
 29 33  1  0
  7  8  1  0
 10 11  1  0
 26 27  1  0
 30 33  1  0
  4 34  1  0
  6 35  1  0
  6 36  1  0
  7 37  1  0
  8 38  1  0
  9 39  1  0
 10 40  1  0
 10 41  1  0
 11 42  1  0
 11 43  1  0
 12 44  1  0
 12 45  1  0
 14 46  1  0
 18 47  1  0
 23 48  1  0
 24 49  1  0
 26 50  1  0
 31 51  1  0
 31 52  1  0
 31 53  1  0
M  END
> <Name>
CHEMBL211854

> <IC50 nM>
15.85

> <Molecule_ChEMBL_ID>
CHEMBL211854

> <Smiles>
Cc1noc(=O)c2ccc(NC(=O)C(O)(CC3CCCc4c(F)cccc43)C(F)(F)F)cc12

$$$$
CHEMBL4161754
  SciTegic08162514323D

 84 88  0  0  1  0            999 V2000
   -6.3560   -1.2460   -2.7340 O   0  0
   -5.3460   -0.9980   -2.1150 C   0  0
   -4.6990   -2.0290   -1.2890 C   0  0
   -4.7130    0.3690   -2.1680 C   0  0
   -3.5040   -1.8440   -0.6890 C   0  0
   -3.1860    0.2580   -2.0980 C   0  0
   -2.6970   -0.5590   -0.8770 C   0  0  2  0  0  0
   -2.9360   -2.9200    0.2150 C   0  0
   -1.1620   -0.8100   -0.9610 C   0  0  1  0  0  0
   -1.4300   -3.1230    0.0350 C   0  0
   -0.3120    0.4920   -1.0210 C   0  0  1  0  0  0
   -0.6680   -1.7930    0.1330 C   0  0  1  0  0  0
   -0.6480    1.4610    0.0630 C   0  0
    1.2070    0.1950   -1.0740 C   0  0
    0.8360   -2.0450   -0.0680 C   0  0  1  0  0  0
   -0.2190    2.7970   -0.0310 C   0  0
   -1.3950    1.0390    1.1780 C   0  0
    1.6600   -0.7560    0.0550 C   0  0  1  0  0  0
    1.5230   -2.9730    0.9340 C   0  0
   -0.5350    3.7110    0.9880 C   0  0
   -1.7110    1.9510    2.1970 C   0  0
    3.1060   -1.3260    0.0000 C   0  0  2  0  0  0
    1.4360   -0.1250    1.4390 C   0  0
    3.0020   -2.5590    0.9260 C   0  0
   -1.2830    3.2910    2.1060 C   0  0
    4.0550   -0.3980    0.5020 O   0  0
    3.5310   -1.7110   -1.3550 C   0  0
   -1.5920    4.1800    3.1020 N   0  0
    3.8870   -2.0250   -2.4470 C   0  0
   -1.7050    3.7420    4.5000 C   0  0
   -1.8160    5.5960    2.7770 C   0  0
    4.3280   -2.4080   -3.7850 C   0  0
   -0.4300    3.0350    4.9570 C   0  0
   -2.0920    4.9100    5.4080 C   0  0
    3.3540   -3.4390   -4.3480 C   0  0
    4.3500   -1.1640   -4.6740 C   0  0
    5.7310   -3.0100   -3.6890 C   0  0
   -5.2150   -2.9710   -1.1600 H   0  0
   -5.0100    0.8830   -3.0820 H   0  0
   -5.0820    0.9630   -1.3320 H   0  0
   -2.7640    1.2620   -2.0740 H   0  0
   -2.8220   -0.2050   -3.0160 H   0  0
   -2.8980    0.0370    0.0140 H   0  0
   -3.1370   -2.6370    1.2500 H   0  0
   -3.4510   -3.8690    0.0530 H   0  0
   -0.9940   -1.3180   -1.9120 H   0  0
   -1.0720   -3.8240    0.7910 H   0  0
   -1.2400   -3.5920   -0.9320 H   0  0
   -0.5550    1.0060   -1.9510 H   0  0
   -0.8500   -1.3610    1.1170 H   0  0
    1.7890    1.1170   -1.0490 H   0  0
    1.4180   -0.2560   -2.0450 H   0  0
    0.9670   -2.4690   -1.0550 H   0  0
    0.3540    3.1250   -0.8850 H   0  0
   -1.7270    0.0140    1.2520 H   0  0
    1.1110   -2.8380    1.9240 H   0  0
    1.3970   -4.0100    0.6700 H   0  0
   -0.1970    4.7350    0.9000 H   0  0
   -2.2870    1.6090    3.0470 H   0  0
    0.4160   -0.2730    1.7950 H   0  0
    1.6250    0.9490    1.4100 H   0  0
    2.1110   -0.5600    2.1760 H   0  0
    3.3010   -2.3180    1.9400 H   0  0
    3.6430   -3.3750    0.6150 H   0  0
    3.9920    0.3990   -0.0470 H   0  0
   -2.5290    3.0350    4.4120 H   0  0
   -1.7930    5.8320    1.7130 H   0  0
   -1.0530    6.2010    3.2680 H   0  0
   -2.7870    5.9040    3.1640 H   0  0
   -0.1600    2.2130    4.2950 H   0  0
   -0.5550    2.6270    5.9610 H   0  0
    0.4080    3.7310    4.9840 H   0  0
   -3.0960    5.2620    5.1780 H   0  0
   -2.0510    4.6110    6.4570 H   0  0
   -1.4060    5.7460    5.2740 H   0  0
    3.3050   -4.3360   -3.7290 H   0  0
    3.6500   -3.7440   -5.3520 H   0  0
    2.3480   -3.0250   -4.4120 H   0  0
    5.0290   -0.4020   -4.2910 H   0  0
    3.3570   -0.7230   -4.7400 H   0  0
    4.6700   -1.4200   -5.6840 H   0  0
    6.4490   -2.3010   -3.2790 H   0  0
    6.0880   -3.3120   -4.6740 H   0  0
    5.7310   -3.8910   -3.0490 H   0  0
  1  2  2  0
  2  3  1  0
  2  4  1  0
  3  5  2  0
  4  6  1  0
  5  7  1  0
  5  8  1  0
  9  7  1  0
  8 10  1  0
  9 11  1  0
  9 12  1  0
 11 13  1  0
 11 14  1  0
 12 15  1  0
 13 16  2  0
 13 17  1  0
 14 18  1  0
 15 19  1  0
 16 20  1  0
 17 21  2  0
 18 22  1  0
 18 23  1  0
 19 24  1  0
 20 25  2  0
 22 26  1  0
 22 27  1  0
 25 28  1  0
 27 29  3  0
 28 30  1  0
 28 31  1  0
 29 32  1  0
 30 33  1  0
 30 34  1  0
 32 35  1  0
 32 36  1  0
 32 37  1  0
  7  6  1  0
 12 10  1  0
 15 18  1  0
 21 25  1  0
 22 24  1  0
  3 38  1  0
  4 39  1  0
  4 40  1  0
  6 41  1  0
  6 42  1  0
  7 43  1  0
  8 44  1  0
  8 45  1  0
  9 46  1  0
 10 47  1  0
 10 48  1  0
 11 49  1  0
 12 50  1  0
 14 51  1  0
 14 52  1  0
 15 53  1  0
 16 54  1  0
 17 55  1  0
 19 56  1  0
 19 57  1  0
 20 58  1  0
 21 59  1  0
 23 60  1  0
 23 61  1  0
 23 62  1  0
 24 63  1  0
 24 64  1  0
 26 65  1  0
 30 66  1  0
 31 67  1  0
 31 68  1  0
 31 69  1  0
 33 70  1  0
 33 71  1  0
 33 72  1  0
 34 73  1  0
 34 74  1  0
 34 75  1  0
 35 76  1  0
 35 77  1  0
 35 78  1  0
 36 79  1  0
 36 80  1  0
 36 81  1  0
 37 82  1  0
 37 83  1  0
 37 84  1  0
M  END
> <Name>
CHEMBL4161754

> <IC50 nM>
24.9

> <Molecule_ChEMBL_ID>
CHEMBL4161754

> <Smiles>
CC(C)N(C)c1ccc([C@H]2C[C@@]3(C)[C@@H](CC[C@@]3(O)C#CC(C)(C)C)[C@@H]3CCC4=CC(=O)CC[C@@H]4[C@H]32)cc1

$$$$
CHEMBL5280434
  SciTegic08162514323D

 52 56  0  0  0  0            999 V2000
    2.6620   -3.3670   -0.3400 S   0  0
    4.0080   -3.5720   -0.8480 O   0  0
    2.3580   -4.1850    0.8200 O   0  0
    2.5450   -1.8160    0.1130 N   0  0
    1.5530   -3.7580   -1.5820 C   0  0
    3.9120   -1.2770    0.7970 S   0  0
    1.4940   -0.9940   -0.0160 C   0  0
    1.1510   -2.8120   -2.9340 S   0  0
    0.8540   -4.9730   -1.5570 C   0  0
    4.5880   -2.4220    1.3830 O   0  0
    4.6920   -0.6250   -0.2420 O   0  0
    3.6080   -0.1400    2.0350 C   0  0
    0.1780   -1.5140   -0.0270 C   0  0
    1.6840    0.4010   -0.1430 C   0  0
    0.0550   -3.9760   -3.5160 C   0  0
   -0.0060   -5.0980   -2.6700 C   0  0
    2.3150   -0.1440    3.1390 S   0  0
    4.4690    0.9490    2.2340 C   0  0
   -0.9430   -0.6540   -0.1660 C   0  0
    0.5760    1.2660   -0.2790 C   0  0
    2.8580    1.2780    3.8970 C   0  0
    4.0370    1.7620    3.3050 C   0  0
   -0.7560    0.7600   -0.2930 C   0  0
   -2.3030   -1.2560   -0.1720 C   0  0
   -1.8360    1.6000   -0.4260 N   0  0
   -3.3140   -0.3690   -0.9040 C   0  0
   -1.6890    2.9570   -0.5880 C   0  0
   -3.2300    1.0740   -0.3940 C   0  0
   -0.6890    3.4060   -1.1000 O   0  0
   -2.7520    3.8440   -0.1370 C   0  0
   -3.5310    3.4280    0.9000 O   0  0
   -3.1030    5.1020   -0.6270 C   0  0
   -4.4060    4.4630    1.0700 C   0  0
   -4.1840    5.5040    0.1600 C   0  0
    0.9590   -5.7250   -0.7850 H   0  0
    0.0120   -2.5780    0.0680 H   0  0
    2.6800    0.8240   -0.1370 H   0  0
   -0.5170   -3.8570   -4.4240 H   0  0
   -0.6390   -5.9570   -2.8480 H   0  0
    5.3540    1.1430    1.6450 H   0  0
    0.7810    2.3220   -0.3710 H   0  0
    2.3500    1.7420    4.7310 H   0  0
    4.5550    2.6540    3.6290 H   0  0
   -2.2870   -2.2440   -0.6350 H   0  0
   -2.6190   -1.3960    0.8630 H   0  0
   -3.1170   -0.3900   -1.9790 H   0  0
   -4.3240   -0.7580   -0.7700 H   0  0
   -3.8870    1.7090   -0.9920 H   0  0
   -3.5940    1.1250    0.6350 H   0  0
   -2.6440    5.6490   -1.4390 H   0  0
   -5.1800    4.4630    1.8260 H   0  0
   -4.7340    6.4320    0.0860 H   0  0
  1  2  2  0
  1  3  2  0
  1  4  1  0
  1  5  1  0
  4  6  1  0
  4  7  1  0
  5  8  1  0
  5  9  2  0
  6 10  2  0
  6 11  2  0
  6 12  1  0
  7 13  2  0
  7 14  1  0
  8 15  1  0
  9 16  1  0
 12 17  1  0
 12 18  2  0
 13 19  1  0
 14 20  2  0
 17 21  1  0
 18 22  1  0
 19 23  2  0
 19 24  1  0
 23 25  1  0
 24 26  1  0
 25 27  1  0
 25 28  1  0
 27 29  2  0
 27 30  1  0
 30 31  1  0
 30 32  2  0
 31 33  1  0
 32 34  1  0
 15 16  2  0
 20 23  1  0
 21 22  2  0
 26 28  1  0
 33 34  2  0
  9 35  1  0
 13 36  1  0
 14 37  1  0
 15 38  1  0
 16 39  1  0
 18 40  1  0
 20 41  1  0
 21 42  1  0
 22 43  1  0
 24 44  1  0
 24 45  1  0
 26 46  1  0
 26 47  1  0
 28 48  1  0
 28 49  1  0
 32 50  1  0
 33 51  1  0
 34 52  1  0
M  END
> <Name>
CHEMBL5280434

> <IC50 nM>
2860

> <Molecule_ChEMBL_ID>
CHEMBL5280434

> <Smiles>
O=C(c1ccco1)N1CCCc2cc(N(S(=O)(=O)c3cccs3)S(=O)(=O)c3cccs3)ccc21

$$$$
CHEMBL5272312
  SciTegic08162514323D

 63 66  0  0  0  0            999 V2000
    6.0900   -6.9730   -2.3070 Cl  0  0
    5.5680   -5.9420   -1.0350 C   0  0
    6.3300   -5.7870    0.1450 C   0  0
    4.3570   -5.2360   -1.1780 C   0  0
    5.8750   -4.9320    1.1660 C   0  0
    7.6150   -6.5160    0.3360 C   0  0
    3.9100   -4.3870   -0.1520 C   0  0
    4.6660   -4.2310    1.0220 C   0  0
    2.4220   -3.5310   -0.3420 S   0  0
    4.2480   -3.4320    1.9830 O   0  0
    1.6190   -3.7420    0.8520 O   0  0
    1.7770   -4.0000   -1.5550 O   0  0
    2.6520   -1.9360   -0.4960 N   0  0
    4.9200   -3.4830    3.2330 C   0  0
    1.6020   -1.1150   -0.6270 C   0  0
    0.2850   -1.6350   -0.6390 C   0  0
    1.7910    0.2790   -0.7540 C   0  0
   -0.8360   -0.7750   -0.7770 C   0  0
    0.6840    1.1440   -0.8890 C   0  0
   -0.6500    0.6390   -0.9040 C   0  0
   -2.1950   -1.3770   -0.7830 C   0  0
   -1.7290    1.4780   -1.0350 N   0  0
   -3.2110   -0.4900   -1.5120 C   0  0
   -1.5820    2.8360   -1.1910 C   0  0
   -3.1250    0.9550   -1.0080 C   0  0
   -0.5720    3.2910   -1.6760 O   0  0
   -2.6900    3.7300   -0.7440 C   0  0
   -3.3010    3.5230    0.5060 C   0  0
   -3.1270    4.7790   -1.5700 C   0  0
   -4.3460    4.3630    0.9320 C   0  0
   -4.1700    5.6190   -1.1480 C   0  0
   -4.9140    4.1640    2.1040 O   0  0
   -4.7810    5.4140    0.1020 C   0  0
   -5.3260    5.3030    2.8480 C   0  0
   -5.7600    6.2070    0.4920 O   0  0
   -6.1620    7.2500   -0.3830 C   0  0
    3.7620   -5.3440   -2.0740 H   0  0
    6.4570   -4.8110    2.0680 H   0  0
    8.3090   -6.4300   -0.5000 H   0  0
    7.4120   -7.5740    0.4940 H   0  0
    8.1170   -6.1370    1.2270 H   0  0
    3.5820   -1.5630   -0.4960 H   0  0
    5.9630   -3.1640    3.2400 H   0  0
    4.8830   -4.5100    3.5980 H   0  0
    4.3750   -2.8580    3.9400 H   0  0
    0.1210   -2.6990   -0.5430 H   0  0
    2.7870    0.7030   -0.7480 H   0  0
    0.8890    2.2010   -0.9800 H   0  0
   -2.1800   -2.3630   -1.2520 H   0  0
   -2.5100   -1.5250    0.2500 H   0  0
   -3.0200   -0.5180   -2.5860 H   0  0
   -4.2190   -0.8790   -1.3690 H   0  0
   -3.7740    1.5880   -1.6170 H   0  0
   -3.4960    1.0160    0.0180 H   0  0
   -2.9710    2.7190    1.1470 H   0  0
   -2.6640    4.9450   -2.5330 H   0  0
   -4.5040    6.4260   -1.7850 H   0  0
   -4.7290    6.2070    2.7270 H   0  0
   -5.3220    5.0390    3.9040 H   0  0
   -6.3520    5.5410    2.5670 H   0  0
   -5.3200    7.9300   -0.5140 H   0  0
   -6.5630    6.7990   -1.2910 H   0  0
   -6.9690    7.8050    0.0960 H   0  0
  1  2  1  0
  2  3  2  0
  2  4  1  0
  3  5  1  0
  3  6  1  0
  4  7  2  0
  5  8  2  0
  7  9  1  0
  8 10  1  0
  9 11  2  0
  9 12  2  0
  9 13  1  0
 10 14  1  0
 13 15  1  0
 15 16  2  0
 15 17  1  0
 16 18  1  0
 17 19  2  0
 18 20  2  0
 18 21  1  0
 20 22  1  0
 21 23  1  0
 22 24  1  0
 22 25  1  0
 24 26  2  0
 24 27  1  0
 27 28  2  0
 27 29  1  0
 28 30  1  0
 29 31  2  0
 30 32  1  0
 30 33  2  0
 32 34  1  0
 33 35  1  0
 35 36  1  0
  7  8  1  0
 19 20  1  0
 23 25  1  0
 31 33  1  0
  4 37  1  0
  5 38  1  0
  6 39  1  0
  6 40  1  0
  6 41  1  0
 13 42  1  0
 14 43  1  0
 14 44  1  0
 14 45  1  0
 16 46  1  0
 17 47  1  0
 19 48  1  0
 21 49  1  0
 21 50  1  0
 23 51  1  0
 23 52  1  0
 25 53  1  0
 25 54  1  0
 28 55  1  0
 29 56  1  0
 31 57  1  0
 34 58  1  0
 34 59  1  0
 34 60  1  0
 36 61  1  0
 36 62  1  0
 36 63  1  0
M  END
> <Name>
CHEMBL5272312

> <IC50 nM>
1320

> <Molecule_ChEMBL_ID>
CHEMBL5272312

> <Smiles>
COc1ccc(C(=O)N2CCCc3cc(NS(=O)(=O)c4cc(Cl)c(C)cc4OC)ccc32)cc1OC

$$$$
CHEMBL5282626
  SciTegic08162514323D

 52 55  0  0  0  0            999 V2000
    2.1060   -1.5900   -4.2710 Cl  0  0
    2.8810   -1.0940   -2.8200 C   0  0
    3.8150   -0.0330   -2.8100 C   0  0
    2.5740   -1.7640   -1.6190 C   0  0
    4.4280    0.3480   -1.6030 C   0  0
    4.1680    0.6970   -4.0590 C   0  0
    3.1930   -1.3770   -0.4180 C   0  0
    4.1190   -0.3200   -0.4060 C   0  0
    2.8090   -2.2070    1.0470 S   0  0
    4.6990    0.0450    0.7210 O   0  0
    2.8810   -1.2560    2.1430 O   0  0
    3.7270   -3.3200    1.1930 O   0  0
    1.3070   -2.8130    1.0260 N   0  0
    5.6290    1.1170    0.6760 C   0  0
    0.2540   -1.9920    0.8950 C   0  0
   -1.0630   -2.5100    0.8830 C   0  0
    0.4450   -0.5980    0.7680 C   0  0
   -2.1840   -1.6520    0.7440 C   0  0
   -0.6640    0.2700    0.6330 C   0  0
   -1.9980   -0.2380    0.6170 C   0  0
   -3.5410   -2.2540    0.7380 C   0  0
   -3.0760    0.6020    0.4860 N   0  0
   -4.5570   -1.3670    0.0100 C   0  0
   -2.9280    1.9590    0.3300 C   0  0
   -4.4730    0.0780    0.5140 C   0  0
   -1.9080    2.4180   -0.1310 O   0  0
   -4.0760    2.8540    0.7580 C   0  0
   -4.4160    2.9710    2.2290 C   0  0
   -3.7770    4.1350    1.5080 C   0  0
    1.8630   -2.5760   -1.6090 H   0  0
    5.1410    1.1600   -1.5920 H   0  0
    4.9000    1.4920   -3.9200 H   0  0
    3.2700    1.1410   -4.4860 H   0  0
    4.5720   -0.0060   -4.7890 H   0  0
    1.1640   -3.7990    1.1080 H   0  0
    6.4690    0.8140    0.0490 H   0  0
    5.0980    2.0180    0.3670 H   0  0
    6.0080    1.2830    1.6840 H   0  0
   -1.2270   -3.5760    0.9790 H   0  0
    1.4390   -0.1740    0.7740 H   0  0
   -0.4590    1.3260    0.5410 H   0  0
   -3.5250   -3.2400    0.2700 H   0  0
   -3.8570   -2.4020    1.7720 H   0  0
   -4.3670   -1.3930   -1.0640 H   0  0
   -5.5660   -1.7560    0.1520 H   0  0
   -5.1190    0.7110   -0.0960 H   0  0
   -4.8440    0.1390    1.5390 H   0  0
   -4.9160    2.8870    0.0650 H   0  0
   -5.4710    3.0570    2.4980 H   0  0
   -3.8070    2.4180    2.9450 H   0  0
   -4.4020    5.0020    1.2930 H   0  0
   -2.7360    4.3670    1.7400 H   0  0
  1  2  1  0
  2  3  2  0
  2  4  1  0
  3  5  1  0
  3  6  1  0
  4  7  2  0
  5  8  2  0
  7  9  1  0
  8 10  1  0
  9 11  2  0
  9 12  2  0
  9 13  1  0
 10 14  1  0
 13 15  1  0
 15 16  2  0
 15 17  1  0
 16 18  1  0
 17 19  2  0
 18 20  2  0
 18 21  1  0
 20 22  1  0
 21 23  1  0
 22 24  1  0
 22 25  1  0
 24 26  2  0
 24 27  1  0
 27 28  1  0
 27 29  1  0
  7  8  1  0
 19 20  1  0
 23 25  1  0
 28 29  1  0
  4 30  1  0
  5 31  1  0
  6 32  1  0
  6 33  1  0
  6 34  1  0
 13 35  1  0
 14 36  1  0
 14 37  1  0
 14 38  1  0
 16 39  1  0
 17 40  1  0
 19 41  1  0
 21 42  1  0
 21 43  1  0
 23 44  1  0
 23 45  1  0
 25 46  1  0
 25 47  1  0
 27 48  1  0
 28 49  1  0
 28 50  1  0
 29 51  1  0
 29 52  1  0
M  END
> <Name>
CHEMBL5282626

> <IC50 nM>
9210

> <Molecule_ChEMBL_ID>
CHEMBL5282626

> <Smiles>
COc1cc(C)c(Cl)cc1S(=O)(=O)Nc1ccc2c(c1)CCCN2C(=O)C1CC1

$$$$
CHEMBL5269834
  SciTegic08162514323D

 48 50  0  0  0  0            999 V2000
    6.1820   -1.5780    3.3790 Cl  0  0
    5.2480   -1.6520    1.9370 C   0  0
    5.5470   -2.5800    0.9160 C   0  0
    4.1660   -0.7660    1.7770 C   0  0
    4.7600   -2.6150   -0.2500 C   0  0
    6.6860   -3.5330    1.0430 C   0  0
    3.3870   -0.8070    0.6090 C   0  0
    3.6800   -1.7300   -0.4080 C   0  0
    2.0630    0.2870    0.4280 S   0  0
    2.9470   -1.7720   -1.5020 O   0  0
    2.2250    0.9960   -0.8300 O   0  0
    2.0370    1.1680    1.5820 O   0  0
    0.6410   -0.4840    0.3730 N   0  0
    3.3340   -2.6700   -2.5310 C   0  0
   -0.4960    0.2130    0.2340 C   0  0
   -1.7460   -0.4510    0.1850 C   0  0
   -0.4630    1.6230    0.1370 C   0  0
   -2.9530    0.2770    0.0410 C   0  0
   -1.6600    2.3590   -0.0080 C   0  0
   -2.9280    1.7070   -0.0590 C   0  0
   -4.2360   -0.4730   -0.0100 C   0  0
   -4.0920    2.4200   -0.1950 N   0  0
   -5.4180    0.3870    0.4490 C   0  0
   -4.1020    3.7930   -0.2740 C   0  0
   -5.4160    1.7380   -0.2770 C   0  0
   -3.2070    4.4380    0.2230 O   0  0
   -5.2440    4.4690   -0.9830 C   0  0
    3.9240   -0.0490    2.5490 H   0  0
    4.9840   -3.3260   -1.0330 H   0  0
    6.8130   -4.1970    0.1870 H   0  0
    6.5430   -4.1520    1.9280 H   0  0
    7.6130   -2.9750    1.1720 H   0  0
    0.6090   -1.4820    0.4410 H   0  0
    2.6060   -2.6000   -3.3380 H   0  0
    4.3690   -2.4590   -2.7970 H   0  0
    3.2930   -3.6840   -2.1310 H   0  0
   -1.7870   -1.5290    0.2580 H   0  0
    0.4770    2.1560    0.1700 H   0  0
   -1.5740    3.4340   -0.0780 H   0  0
   -4.3990   -0.8050   -1.0370 H   0  0
   -4.1840   -1.3710    0.6070 H   0  0
   -5.3580    0.5490    1.5270 H   0  0
   -6.3560   -0.1370    0.2690 H   0  0
   -5.6680    1.5940   -1.3280 H   0  0
   -6.1950    2.3750    0.1460 H   0  0
   -5.0250    5.4960   -1.2770 H   0  0
   -6.1230    4.4860   -0.3380 H   0  0
   -5.5020    3.9120   -1.8830 H   0  0
  1  2  1  0
  2  3  2  0
  2  4  1  0
  3  5  1  0
  3  6  1  0
  4  7  2  0
  5  8  2  0
  7  9  1  0
  8 10  1  0
  9 11  2  0
  9 12  2  0
  9 13  1  0
 10 14  1  0
 13 15  1  0
 15 16  2  0
 15 17  1  0
 16 18  1  0
 17 19  2  0
 18 20  2  0
 18 21  1  0
 20 22  1  0
 21 23  1  0
 22 24  1  0
 22 25  1  0
 24 26  2  0
 24 27  1  0
  7  8  1  0
 19 20  1  0
 23 25  1  0
  4 28  1  0
  5 29  1  0
  6 30  1  0
  6 31  1  0
  6 32  1  0
 13 33  1  0
 14 34  1  0
 14 35  1  0
 14 36  1  0
 16 37  1  0
 17 38  1  0
 19 39  1  0
 21 40  1  0
 21 41  1  0
 23 42  1  0
 23 43  1  0
 25 44  1  0
 25 45  1  0
 27 46  1  0
 27 47  1  0
 27 48  1  0
M  END
> <Name>
CHEMBL5269834

> <IC50 nM>
3190

> <Molecule_ChEMBL_ID>
CHEMBL5269834

> <Smiles>
COc1cc(C)c(Cl)cc1S(=O)(=O)Nc1ccc2c(c1)CCCN2C(C)=O

$$$$
CHEMBL5274080
  SciTegic08162514323D

 70 74  0  0  0  0            999 V2000
    1.1450   -0.9300   -1.7300 S   0  0
    0.2050   -0.9430   -2.8400 O   0  0
    2.4860   -1.3360   -2.1110 O   0  0
    1.2330    0.5960   -1.1870 N   0  0
    0.5700   -2.0160   -0.5190 C   0  0
    2.5940    1.1270   -0.4880 S   0  0
    0.1800    1.4160   -1.3180 C   0  0
    0.0100   -1.5100    0.6660 C   0  0
    0.6660   -3.4020   -0.7210 C   0  0
    3.4220    1.7090   -1.5290 O   0  0
    2.2110    2.0800    0.5390 O   0  0
    3.4790   -0.1500    0.2600 C   0  0
   -1.1370    0.8960   -1.3300 C   0  0
    0.3710    2.8110   -1.4430 C   0  0
   -0.4570   -2.3970    1.6520 C   0  0
    0.1990   -4.2870    0.2660 C   0  0
    3.0410   -0.6860    1.4830 C   0  0
    4.6390   -0.6520   -0.3550 C   0  0
   -2.2580    1.7540   -1.4690 C   0  0
   -0.7380    3.6760   -1.5800 C   0  0
   -0.3630   -3.7850    1.4530 C   0  0
    3.7620   -1.7270    2.0920 C   0  0
    5.3600   -1.6930    0.2540 C   0  0
   -2.0700    3.1700   -1.5940 C   0  0
   -3.6150    1.1520   -1.4750 C   0  0
   -0.8590   -4.7270    2.5020 C   0  0
    4.9220   -2.2310    1.4790 C   0  0
   -3.1500    4.0080   -1.7250 N   0  0
   -4.6310    2.0410   -2.2010 C   0  0
   -1.3460   -4.3130    3.5270 O   0  0
   -0.7210   -6.0180    2.2170 O   0  0
    5.6900   -3.3380    2.1250 C   0  0
   -3.0020    5.3670   -1.8810 C   0  0
   -4.5450    3.4860   -1.6970 C   0  0
   -1.2170   -6.8560    3.2480 C   0  0
    5.3280   -3.8130    3.1760 O   0  0
    6.7720   -3.7380    1.4630 O   0  0
   -2.0040    5.8200   -2.3890 O   0  0
   -4.0590    6.2580   -1.4240 C   0  0
    7.4570   -4.7870    2.1350 C   0  0
   -4.2870    7.3950   -2.1390 O   0  0
   -4.9040    6.1130   -0.3220 C   0  0
   -5.3140    7.9900   -1.4630 C   0  0
   -5.7230    7.2440   -0.3500 C   0  0
   -0.0620   -0.4430    0.8200 H   0  0
    1.0980   -3.7890   -1.6330 H   0  0
   -1.3010   -0.1680   -1.2320 H   0  0
    1.3650    3.2340   -1.4370 H   0  0
   -0.8870   -2.0000    2.5630 H   0  0
    0.2750   -5.3540    0.1040 H   0  0
    2.1490   -0.2970    1.9550 H   0  0
    4.9750   -0.2400   -1.2970 H   0  0
   -0.5330    4.7320   -1.6720 H   0  0
    3.4180   -2.1330    3.0310 H   0  0
    6.2500   -2.0740   -0.2270 H   0  0
   -3.6000    0.1680   -1.9430 H   0  0
   -3.9300    1.0060   -0.4390 H   0  0
   -4.4410    2.0140   -3.2750 H   0  0
   -5.6410    1.6520   -2.0610 H   0  0
   -5.1930    4.1190   -2.3070 H   0  0
   -4.9180    3.5450   -0.6740 H   0  0
   -2.2660   -6.7290    3.5220 H   0  0
   -0.6170   -6.6880    4.1430 H   0  0
   -1.0760   -7.8930    2.9430 H   0  0
    8.2830   -5.1130    1.5020 H   0  0
    7.7230   -4.4380    3.1310 H   0  0
    6.7720   -5.6250    2.2480 H   0  0
   -4.9240    5.3050    0.3950 H   0  0
   -5.7520    8.9340   -1.7640 H   0  0
   -6.5100    7.4960    0.3480 H   0  0
  1  2  2  0
  1  3  2  0
  1  4  1  0
  1  5  1  0
  4  6  1  0
  4  7  1  0
  5  8  2  0
  5  9  1  0
  6 10  2  0
  6 11  2  0
  6 12  1  0
  7 13  2  0
  7 14  1  0
  8 15  1  0
  9 16  2  0
 12 17  2  0
 12 18  1  0
 13 19  1  0
 14 20  2  0
 15 21  2  0
 17 22  1  0
 18 23  2  0
 19 24  2  0
 19 25  1  0
 21 26  1  0
 22 27  2  0
 24 28  1  0
 25 29  1  0
 26 30  2  0
 26 31  1  0
 27 32  1  0
 28 33  1  0
 28 34  1  0
 31 35  1  0
 32 36  2  0
 32 37  1  0
 33 38  2  0
 33 39  1  0
 37 40  1  0
 39 41  1  0
 39 42  2  0
 41 43  1  0
 42 44  1  0
 16 21  1  0
 20 24  1  0
 23 27  1  0
 29 34  1  0
 43 44  2  0
  8 45  1  0
  9 46  1  0
 13 47  1  0
 14 48  1  0
 15 49  1  0
 16 50  1  0
 17 51  1  0
 18 52  1  0
 20 53  1  0
 22 54  1  0
 23 55  1  0
 25 56  1  0
 25 57  1  0
 29 58  1  0
 29 59  1  0
 34 60  1  0
 34 61  1  0
 35 62  1  0
 35 63  1  0
 35 64  1  0
 40 65  1  0
 40 66  1  0
 40 67  1  0
 42 68  1  0
 43 69  1  0
 44 70  1  0
M  END
> <Name>
CHEMBL5274080

> <IC50 nM>
50000

> <Molecule_ChEMBL_ID>
CHEMBL5274080

> <Smiles>
COC(=O)c1ccc(S(=O)(=O)N(c2ccc3c(c2)CCCN3C(=O)c2ccco2)S(=O)(=O)c2ccc(C(=O)OC)cc2)cc1

$$$$
CHEMBL5269614
  SciTegic08162514323D

 62 66  0  0  0  0            999 V2000
    1.6660   -2.1250    0.4510 S   0  0
    1.1290   -3.1020   -0.4810 O   0  0
    2.9770   -2.4840    0.9630 O   0  0
    1.8240   -0.7250   -0.3500 N   0  0
    0.5800   -1.9900    1.7850 C   0  0
    3.2540   -0.3160   -0.9920 S   0  0
    0.7720    0.0960   -0.4790 C   0  0
    0.7110   -0.9200    2.6870 C   0  0
   -0.4300   -2.9490    1.9650 C   0  0
    2.9880    0.3790   -2.2400 O   0  0
    3.9530    0.5040   -0.0200 O   0  0
    4.2270   -1.6990   -1.3380 C   0  0
   -0.5450   -0.4240   -0.4920 C   0  0
    0.9630    1.4900   -0.6060 C   0  0
   -0.1740   -0.8070    3.7730 C   0  0
   -1.3160   -2.8400    3.0510 C   0  0
    3.7790   -2.6560   -2.2640 C   0  0
    5.4650   -1.8610   -0.6920 C   0  0
   -1.6660    0.4350   -0.6290 C   0  0
   -0.1460    2.3550   -0.7420 C   0  0
   -1.1840   -1.7700    3.9510 C   0  0
    4.5720   -3.7830   -2.5450 C   0  0
    6.2600   -2.9880   -0.9710 C   0  0
   -1.4780    1.8500   -0.7560 C   0  0
   -3.0230   -0.1660   -0.6350 C   0  0
   -2.0610   -1.6600    5.0290 N   0  3
    5.8090   -3.9430   -1.8990 C   0  0
   -2.5590    2.6890   -0.8870 N   0  0
   -4.0390    0.7210   -1.3630 C   0  0
   -1.9020   -0.7190    5.7730 O   0  0
   -2.9240   -2.5290    5.1370 O   0  5
    6.5960   -5.0610   -2.1760 N   0  3
   -2.4100    4.0470   -1.0430 C   0  0
   -3.9530    2.1660   -0.8590 C   0  0
    7.6510   -5.1510   -1.5900 O   0  0
    6.1530   -5.8650   -2.9960 O   0  5
   -1.4160    4.5000   -1.5630 O   0  0
   -3.4610    4.9380   -0.5720 C   0  0
   -4.2360    4.5180    0.4670 O   0  0
   -3.8050    6.2070   -1.0430 C   0  0
   -5.1000    5.5590    0.6560 C   0  0
   -4.8730    6.6090   -0.2400 C   0  0
    1.4880   -0.1820    2.5470 H   0  0
   -0.5290   -3.7720    1.2690 H   0  0
   -0.7090   -1.4880   -0.3950 H   0  0
    1.9570    1.9140   -0.6000 H   0  0
   -0.0760    0.0140    4.4690 H   0  0
   -2.0940   -3.5760    3.1910 H   0  0
    2.8280   -2.5290   -2.7600 H   0  0
    5.8070   -1.1250    0.0190 H   0  0
    0.0590    3.4120   -0.8340 H   0  0
    4.2310   -4.5220   -3.2580 H   0  0
    7.2110   -3.1150   -0.4770 H   0  0
   -3.0080   -1.1520   -1.1040 H   0  0
   -3.3380   -0.3150    0.3980 H   0  0
   -3.8500    0.6930   -2.4380 H   0  0
   -5.0490    0.3320   -1.2210 H   0  0
   -4.6020    2.7990   -1.4690 H   0  0
   -4.3260    2.2270    0.1640 H   0  0
   -3.3460    6.7600   -1.8520 H   0  0
   -5.8670    5.5570    1.4200 H   0  0
   -5.4160    7.5430   -0.2990 H   0  0
  1  2  2  0
  1  3  2  0
  1  4  1  0
  1  5  1  0
  4  6  1  0
  4  7  1  0
  5  8  2  0
  5  9  1  0
  6 10  2  0
  6 11  2  0
  6 12  1  0
  7 13  2  0
  7 14  1  0
  8 15  1  0
  9 16  2  0
 12 17  2  0
 12 18  1  0
 13 19  1  0
 14 20  2  0
 15 21  2  0
 17 22  1  0
 18 23  2  0
 19 24  2  0
 19 25  1  0
 21 26  1  0
 22 27  2  0
 24 28  1  0
 25 29  1  0
 26 30  2  0
 26 31  1  0
 27 32  1  0
 28 33  1  0
 28 34  1  0
 32 35  2  0
 32 36  1  0
 33 37  2  0
 33 38  1  0
 38 39  1  0
 38 40  2  0
 39 41  1  0
 40 42  1  0
 16 21  1  0
 20 24  1  0
 23 27  1  0
 29 34  1  0
 41 42  2  0
  8 43  1  0
  9 44  1  0
 13 45  1  0
 14 46  1  0
 15 47  1  0
 16 48  1  0
 17 49  1  0
 18 50  1  0
 20 51  1  0
 22 52  1  0
 23 53  1  0
 25 54  1  0
 25 55  1  0
 29 56  1  0
 29 57  1  0
 34 58  1  0
 34 59  1  0
 40 60  1  0
 41 61  1  0
 42 62  1  0
M  CHG  4  26   1  31  -1  32   1  36  -1
M  END
> <Name>
CHEMBL5269614

> <IC50 nM>
4800

> <Molecule_ChEMBL_ID>
CHEMBL5269614

> <Smiles>
O=C(c1ccco1)N1CCCc2cc(N(S(=O)(=O)c3ccc([N+](=O)[O-])cc3)S(=O)(=O)c3ccc([N+](=O)[O-])cc3)ccc21

$$$$
CHEMBL5290588
  SciTegic08162514323D

 58 61  0  0  0  0            999 V2000
    6.0880   -3.8690   -1.5060 Cl  0  0
    5.0550   -3.5140   -0.1780 C   0  0
    5.1680   -4.2070    1.0470 C   0  0
    4.0780   -2.5080   -0.3200 C   0  0
    4.3090   -3.8890    2.1130 C   0  0
    6.1840   -5.2790    1.2400 C   0  0
    3.2230   -2.1970    0.7500 C   0  0
    3.3340   -2.8850    1.9710 C   0  0
    2.0290   -0.9650    0.5590 S   0  0
    2.5330   -2.5940    2.9750 O   0  0
    2.2560   -0.3030   -0.7150 O   0  0
    2.1150   -0.0640    1.6950 O   0  0
    0.5270   -1.5720    0.5290 N   0  0
    2.6230   -3.3830    4.1500 C   0  0
   -0.5250   -0.7500    0.4000 C   0  0
   -1.8400   -1.2690    0.3890 C   0  0
   -0.3340    0.6450    0.2730 C   0  0
   -2.9610   -0.4100    0.2500 C   0  0
   -1.4410    1.5100    0.1370 C   0  0
   -2.7750    1.0040    0.1230 C   0  0
   -4.3200   -1.0120    0.2440 C   0  0
   -3.8540    1.8440   -0.0100 N   0  0
   -5.3320   -0.1250   -0.4880 C   0  0
   -3.7070    3.1990   -0.1720 C   0  0
   -5.2500    1.3180    0.0230 C   0  0
   -4.4160    3.9670    0.4360 O   0  0
   -2.6580    3.7010   -1.1090 C   0  0
   -2.0230    4.9340   -0.8630 C   0  0
   -2.3030    2.9450   -2.2400 C   0  0
   -1.0370    5.4060   -1.7460 C   0  0
   -1.3160    3.4180   -3.1230 C   0  0
   -0.6820    4.6490   -2.8770 C   0  0
    0.3610    5.1490   -3.8110 C   0  0
    3.9790   -1.9690   -1.2520 H   0  0
    4.3930   -4.4160    3.0530 H   0  0
    6.1700   -5.7380    2.2270 H   0  0
    7.1800   -4.8670    1.0780 H   0  0
    6.0250   -6.0660    0.5020 H   0  0
    0.3850   -2.5590    0.6090 H   0  0
    1.9200   -2.9880    4.8830 H   0  0
    2.4920   -4.4280    3.8710 H   0  0
    3.6270   -3.2710    4.5610 H   0  0
   -2.0060   -2.3340    0.4840 H   0  0
    0.6620    1.0680    0.2810 H   0  0
   -1.2360    2.5670    0.0450 H   0  0
   -4.3050   -2.0000   -0.2170 H   0  0
   -4.6370   -1.1520    1.2790 H   0  0
   -5.1350   -0.1460   -1.5620 H   0  0
   -6.3420   -0.5140   -0.3530 H   0  0
   -5.9040    1.9530   -0.5760 H   0  0
   -5.6110    1.3690    1.0510 H   0  0
   -2.2910    5.5220    0.0020 H   0  0
   -2.7850    1.9980   -2.4380 H   0  0
   -0.5550    6.3520   -1.5530 H   0  0
   -1.0490    2.8300   -3.9900 H   0  0
    0.5630    4.4880   -4.6540 H   0  0
    1.2950    5.2890   -3.2680 H   0  0
    0.0590    6.1150   -4.2110 H   0  0
  1  2  1  0
  2  3  2  0
  2  4  1  0
  3  5  1  0
  3  6  1  0
  4  7  2  0
  5  8  2  0
  7  9  1  0
  8 10  1  0
  9 11  2  0
  9 12  2  0
  9 13  1  0
 10 14  1  0
 13 15  1  0
 15 16  2  0
 15 17  1  0
 16 18  1  0
 17 19  2  0
 18 20  2  0
 18 21  1  0
 20 22  1  0
 21 23  1  0
 22 24  1  0
 22 25  1  0
 24 26  2  0
 24 27  1  0
 27 28  2  0
 27 29  1  0
 28 30  1  0
 29 31  2  0
 30 32  2  0
 32 33  1  0
  7  8  1  0
 19 20  1  0
 23 25  1  0
 31 32  1  0
  4 34  1  0
  5 35  1  0
  6 36  1  0
  6 37  1  0
  6 38  1  0
 13 39  1  0
 14 40  1  0
 14 41  1  0
 14 42  1  0
 16 43  1  0
 17 44  1  0
 19 45  1  0
 21 46  1  0
 21 47  1  0
 23 48  1  0
 23 49  1  0
 25 50  1  0
 25 51  1  0
 28 52  1  0
 29 53  1  0
 30 54  1  0
 31 55  1  0
 33 56  1  0
 33 57  1  0
 33 58  1  0
M  END
> <Name>
CHEMBL5290588

> <IC50 nM>
1110

> <Molecule_ChEMBL_ID>
CHEMBL5290588

> <Smiles>
COc1cc(C)c(Cl)cc1S(=O)(=O)Nc1ccc2c(c1)CCCN2C(=O)c1ccc(C)cc1

$$$$
CHEMBL5274811
  SciTegic08162514323D

 61 64  0  0  0  0            999 V2000
    6.4940   -3.6040   -2.9300 Cl  0  0
    5.4450   -3.3420   -1.5940 C   0  0
    5.6470   -4.0000   -0.3590 C   0  0
    4.3630   -2.4510   -1.7380 C   0  0
    4.7700   -3.7600    0.7130 C   0  0
    6.7770   -4.9510   -0.1660 C   0  0
    3.4920   -2.2190   -0.6620 C   0  0
    3.6910   -2.8710    0.5660 C   0  0
    2.1700   -1.1250   -0.8550 S   0  0
    2.8750   -2.6500    1.5780 O   0  0
    2.3500   -0.4060   -2.1040 O   0  0
    2.1230   -0.2540    0.3070 O   0  0
    0.7480   -1.9000   -0.9390 N   0  0
    2.9180   -3.5510    2.6760 C   0  0
   -0.3890   -1.2010   -1.0780 C   0  0
   -1.6370   -1.8650   -1.1270 C   0  0
   -0.3550    0.2070   -1.1760 C   0  0
   -2.8460   -1.1370   -1.2710 C   0  0
   -1.5510    0.9450   -1.3200 C   0  0
   -2.8180    0.2910   -1.3710 C   0  0
   -4.1270   -1.8890   -1.3220 C   0  0
   -3.9820    1.0060   -1.5080 N   0  0
   -5.3090   -1.0270   -0.8630 C   0  0
   -3.9920    2.3790   -1.5840 C   0  0
   -5.3070    0.3220   -1.5900 C   0  0
   -4.6840    2.9390   -2.4020 O   0  0
   -3.1350    3.1560   -0.6410 C   0  0
   -2.6040    4.3980   -1.0310 C   0  0
   -2.8570    2.6460    0.6410 C   0  0
   -1.7970    5.1310   -0.1430 C   0  0
   -2.0510    3.3790    1.5290 C   0  0
   -1.5200    4.6210    1.1390 C   0  0
   -0.6620    5.3980    2.0840 C   0  0
   -0.1660    6.4490    1.7500 O   0  0
   -0.5000    4.8500    3.2830 O   0  0
    0.3380    5.6310    4.1250 C   0  0
    4.1930   -1.9410   -2.6760 H   0  0
    4.9240   -4.2600    1.6580 H   0  0
    7.6350   -4.7660   -0.8110 H   0  0
    6.4320   -5.9690   -0.3550 H   0  0
    7.1190   -4.9020    0.8670 H   0  0
    0.7190   -2.8990   -0.8890 H   0  0
    2.1000   -3.4840    3.3930 H   0  0
    3.8500   -3.3850    3.2190 H   0  0
    2.9380   -4.5670    2.2850 H   0  0
   -1.6800   -2.9450   -1.0550 H   0  0
    0.5860    0.7420   -1.1410 H   0  0
   -1.4650    2.0190   -1.3890 H   0  0
   -4.2910   -2.2190   -2.3500 H   0  0
   -4.0740   -2.7870   -0.7050 H   0  0
   -5.2480   -0.8650    0.2150 H   0  0
   -6.2480   -1.5510   -1.0430 H   0  0
   -5.5590    0.1800   -2.6410 H   0  0
   -6.0860    0.9610   -1.1660 H   0  0
   -2.8130    4.7970   -2.0140 H   0  0
   -3.2600    1.6930    0.9490 H   0  0
   -1.3950    6.0840   -0.4510 H   0  0
   -1.8420    2.9800    2.5120 H   0  0
    0.3090    5.2010    5.1270 H   0  0
    1.3200    5.7010    3.6600 H   0  0
   -0.0780    6.6370    4.1820 H   0  0
  1  2  1  0
  2  3  2  0
  2  4  1  0
  3  5  1  0
  3  6  1  0
  4  7  2  0
  5  8  2  0
  7  9  1  0
  8 10  1  0
  9 11  2  0
  9 12  2  0
  9 13  1  0
 10 14  1  0
 13 15  1  0
 15 16  2  0
 15 17  1  0
 16 18  1  0
 17 19  2  0
 18 20  2  0
 18 21  1  0
 20 22  1  0
 21 23  1  0
 22 24  1  0
 22 25  1  0
 24 26  2  0
 24 27  1  0
 27 28  2  0
 27 29  1  0
 28 30  1  0
 29 31  2  0
 30 32  2  0
 32 33  1  0
 33 34  2  0
 33 35  1  0
 35 36  1  0
  7  8  1  0
 19 20  1  0
 23 25  1  0
 31 32  1  0
  4 37  1  0
  5 38  1  0
  6 39  1  0
  6 40  1  0
  6 41  1  0
 13 42  1  0
 14 43  1  0
 14 44  1  0
 14 45  1  0
 16 46  1  0
 17 47  1  0
 19 48  1  0
 21 49  1  0
 21 50  1  0
 23 51  1  0
 23 52  1  0
 25 53  1  0
 25 54  1  0
 28 55  1  0
 29 56  1  0
 30 57  1  0
 31 58  1  0
 36 59  1  0
 36 60  1  0
 36 61  1  0
M  END
> <Name>
CHEMBL5274811

> <IC50 nM>
50000

> <Molecule_ChEMBL_ID>
CHEMBL5274811

> <Smiles>
COC(=O)c1ccc(C(=O)N2CCCc3cc(NS(=O)(=O)c4cc(Cl)c(C)cc4OC)ccc32)cc1

$$$$
CHEMBL5282144
  SciTegic08162514323D

 66 70  0  0  0  0            999 V2000
    3.2070   -1.1050    1.1760 S   0  0
    3.9020   -2.2600    1.7170 O   0  0
    3.9710   -0.3980    0.1620 O   0  0
    1.8460   -1.6370    0.4790 N   0  0
    2.8850   -0.0120    2.4730 C   0  0
    1.7560   -3.1620   -0.0620 S   0  0
    0.7930   -0.8160    0.3480 C   0  0
    3.5940    1.1990    2.5610 C   0  0
    1.9160   -0.3340    3.4360 C   0  0
    3.1090   -3.6000   -0.3570 O   0  0
    1.1090   -3.9530    0.9670 O   0  0
    0.8200   -3.2810   -1.5080 C   0  0
   -0.5220   -1.3340    0.3360 C   0  0
    0.9840    0.5780    0.2230 C   0  0
    3.3300    2.0880    3.6170 C   0  0
    1.6540    0.5590    4.4900 C   0  0
   -0.2600   -4.1780   -1.5700 C   0  0
    1.1390   -2.4800   -2.6190 C   0  0
   -1.6430   -0.4770    0.1970 C   0  0
   -0.1230    1.4430    0.0860 C   0  0
    2.3590    1.7720    4.5840 C   0  0
   -1.0220   -4.2730   -2.7480 C   0  0
    0.3750   -2.5800   -3.7950 C   0  0
   -1.4570    0.9380    0.0700 C   0  0
   -3.0020   -1.0780    0.1930 C   0  0
    2.1130    2.6060    5.5740 O   0  0
   -0.7070   -3.4750   -3.8630 C   0  0
   -2.5350    1.7770   -0.0620 N   0  0
   -4.0140   -0.1890   -0.5410 C   0  0
    1.1250    2.2400    6.5260 C   0  0
   -1.4220   -3.5660   -4.9670 O   0  0
   -2.3890    3.1350   -0.2250 C   0  0
   -3.9320    1.2540   -0.0290 C   0  0
   -1.1000   -2.6970   -6.0430 C   0  0
   -3.1020    3.9020    0.3790 O   0  0
   -1.3670    3.6450   -1.1290 C   0  0
   -0.9630    2.8400   -2.1520 O   0  0
   -0.7170    4.8790   -1.1030 C   0  0
   -0.0230    3.5960   -2.7950 C   0  0
    0.1580    4.8460   -2.1890 C   0  0
    4.3400    1.4470    1.8200 H   0  0
    1.3710   -1.2640    3.3670 H   0  0
   -0.6880   -2.4000    0.4340 H   0  0
    1.9800    1.0020    0.2290 H   0  0
    3.8770    3.0180    3.6820 H   0  0
    0.9080    0.3090    5.2310 H   0  0
   -0.5060   -4.7910   -0.7170 H   0  0
    1.9710   -1.7930   -2.5700 H   0  0
    0.0820    2.5020   -0.0060 H   0  0
   -1.8520   -4.9630   -2.7950 H   0  0
    0.6230   -1.9650   -4.6460 H   0  0
   -2.9860   -2.0660   -0.2690 H   0  0
   -3.3180   -1.2190    1.2270 H   0  0
   -3.8160   -0.2130   -1.6130 H   0  0
   -5.0240   -0.5800   -0.4040 H   0  0
    0.9390    2.9470    7.3340 H   0  0
    1.4180    1.2890    6.9730 H   0  0
    0.1860    2.0840    5.9960 H   0  0
   -4.5860    1.8890   -0.6270 H   0  0
   -4.2930    1.3050    0.9980 H   0  0
   -1.7480   -2.9430   -6.8850 H   0  0
   -1.1480   -1.6720   -5.6800 H   0  0
   -0.0700   -2.8960   -6.3460 H   0  0
   -0.8570    5.6860   -0.3960 H   0  0
    0.5100    3.2540   -3.6700 H   0  0
    0.8400    5.6250   -2.5020 H   0  0
  1  2  2  0
  1  3  2  0
  1  4  1  0
  1  5  1  0
  4  6  1  0
  4  7  1  0
  5  8  2  0
  5  9  1  0
  6 10  2  0
  6 11  2  0
  6 12  1  0
  7 13  2  0
  7 14  1  0
  8 15  1  0
  9 16  2  0
 12 17  2  0
 12 18  1  0
 13 19  1  0
 14 20  2  0
 15 21  2  0
 17 22  1  0
 18 23  2  0
 19 24  2  0
 19 25  1  0
 21 26  1  0
 22 27  2  0
 24 28  1  0
 25 29  1  0
 26 30  1  0
 27 31  1  0
 28 32  1  0
 28 33  1  0
 31 34  1  0
 32 35  2  0
 32 36  1  0
 36 37  1  0
 36 38  2  0
 37 39  1  0
 38 40  1  0
 16 21  1  0
 20 24  1  0
 23 27  1  0
 29 33  1  0
 39 40  2  0
  8 41  1  0
  9 42  1  0
 13 43  1  0
 14 44  1  0
 15 45  1  0
 16 46  1  0
 17 47  1  0
 18 48  1  0
 20 49  1  0
 22 50  1  0
 23 51  1  0
 25 52  1  0
 25 53  1  0
 29 54  1  0
 29 55  1  0
 30 56  1  0
 30 57  1  0
 30 58  1  0
 33 59  1  0
 33 60  1  0
 34 61  1  0
 34 62  1  0
 34 63  1  0
 38 64  1  0
 39 65  1  0
 40 66  1  0
M  END
> <Name>
CHEMBL5282144

> <IC50 nM>
280

> <Molecule_ChEMBL_ID>
CHEMBL5282144

> <Smiles>
COc1ccc(S(=O)(=O)N(c2ccc3c(c2)CCCN3C(=O)c2ccco2)S(=O)(=O)c2ccc(OC)cc2)cc1

$$$$
CHEMBL68965
  SciTegic08162514323D

 54 56  0  0  0  0            999 V2000
   -0.7150   -2.7340    2.8220 S   0  0
   -1.3970   -2.5630    4.0920 O   0  0
   -1.6210   -2.9960    1.7170 O   0  0
    0.0620   -1.3520    2.4960 N   0  0
    0.4340   -4.0980    2.9610 C   0  0
   -0.4100   -0.5100    1.5160 C   0  0
    0.4000   -0.1840    0.4000 C   0  0
   -1.7110    0.0330    1.6190 C   0  0
   -0.0980    0.6820   -0.6020 C   0  0
    1.7810   -0.7520    0.2790 C   0  0
   -2.1950    0.8910    0.6190 C   0  0
   -2.6000   -0.2830    2.7750 C   0  0
    0.6620    1.0200   -1.6940 N   0  0
   -1.3950    1.2150   -0.4860 C   0  0
    0.2540    0.6230   -3.0490 C   0  0
    1.9020    1.7870   -1.5200 C   0  0
   -0.4410   -0.6910   -3.0490 C   0  0
    1.7890    2.7620   -0.4020 C   0  0
   -1.8480   -0.7420   -3.0490 C   0  0
    0.3050   -1.8830   -3.0490 C   0  0
    2.6480    2.6680    0.7050 C   0  0
    0.8200    3.7810   -0.4530 C   0  0
   -2.5060   -1.9840   -3.0490 C   0  0
   -0.3560   -3.1250   -3.0490 C   0  0
    2.5410    3.5900    1.7620 C   0  0
    0.7150    4.7030    0.6010 C   0  0
   -1.7600   -3.1760   -3.0490 C   0  0
    1.5740    4.6070    1.7090 C   0  0
    0.8890   -1.1090    3.0060 H   0  0
   -0.0350   -5.0570    3.1820 H   0  0
    1.1520   -3.8870    3.7540 H   0  0
    0.9880   -4.2030    2.0290 H   0  0
    2.1230   -0.8830   -0.7460 H   0  0
    1.8160   -1.7250    0.7690 H   0  0
    2.4880   -0.0980    0.7870 H   0  0
   -3.1900    1.3090    0.6950 H   0  0
   -3.3990    0.4570    2.8340 H   0  0
   -2.9770   -1.3010    2.6760 H   0  0
   -2.0270   -0.2290    3.6990 H   0  0
   -1.7910    1.8790   -1.2420 H   0  0
    1.1370    0.5660   -3.6880 H   0  0
   -0.4080    1.3850   -3.4630 H   0  0
    2.1290    2.3180   -2.4440 H   0  0
    2.7250    1.1000   -1.3190 H   0  0
   -2.4280    0.1680   -3.0490 H   0  0
    1.3850   -1.8520   -3.0490 H   0  0
    3.3950    1.8870    0.7520 H   0  0
    0.1560    3.8610   -1.3010 H   0  0
   -3.5840   -2.0230   -3.0490 H   0  0
    0.2190   -4.0410   -3.0490 H   0  0
    3.2030    3.5160    2.6110 H   0  0
   -0.0290    5.4860    0.5620 H   0  0
   -2.2660   -4.1310   -3.0490 H   0  0
    1.4920    5.3160    2.5190 H   0  0
  1  2  2  0
  1  3  2  0
  1  4  1  0
  1  5  1  0
  4  6  1  0
  6  7  2  0
  6  8  1  0
  7  9  1  0
  7 10  1  0
  8 11  2  0
  8 12  1  0
  9 13  1  0
  9 14  2  0
 13 15  1  0
 13 16  1  0
 15 17  1  0
 16 18  1  0
 17 19  2  0
 17 20  1  0
 18 21  2  0
 18 22  1  0
 19 23  1  0
 20 24  2  0
 21 25  1  0
 22 26  2  0
 23 27  2  0
 25 28  2  0
 11 14  1  0
 24 27  1  0
 26 28  1  0
  4 29  1  0
  5 30  1  0
  5 31  1  0
  5 32  1  0
 10 33  1  0
 10 34  1  0
 10 35  1  0
 11 36  1  0
 12 37  1  0
 12 38  1  0
 12 39  1  0
 14 40  1  0
 15 41  1  0
 15 42  1  0
 16 43  1  0
 16 44  1  0
 19 45  1  0
 20 46  1  0
 21 47  1  0
 22 48  1  0
 23 49  1  0
 24 50  1  0
 25 51  1  0
 26 52  1  0
 27 53  1  0
 28 54  1  0
M  END
> <Name>
CHEMBL68965

> <IC50 nM>
6600

> <Molecule_ChEMBL_ID>
CHEMBL68965

> <Smiles>
Cc1ccc(N(Cc2ccccc2)Cc2ccccc2)c(C)c1NS(C)(=O)=O

$$$$
CHEMBL196067
  SciTegic08162514323D

 49 51  0  0  1  0            999 V2000
   -1.0350   -3.7460   -0.4550 F   0  0
    0.1210   -3.1760   -0.9240 C   0  0
    1.1660   -4.0450   -0.7400 F   0  0
   -0.0150   -2.9000   -2.2600 F   0  0
    0.3950   -1.8790   -0.1600 C   0  0  2  0  0  0
    0.5290   -2.1930    1.2070 O   0  0
   -0.7030   -0.8650   -0.3360 C   0  0
    1.6760   -1.1840   -0.6190 C   0  0
   -0.5560    0.0920   -1.0580 O   0  0
   -1.8790   -1.0490    0.3360 N   0  0
    2.2380   -0.2290    0.4320 C   0  0
   -2.8750   -0.1620    0.1990 C   0  0
    3.4960    0.4160   -0.0290 C   0  0
    1.2150    0.8090    0.8970 C   0  0
    2.9080   -0.9590    1.5980 C   0  0
   -4.2190   -0.6020    0.0840 C   0  0
   -2.5990    1.2300    0.1660 C   0  0
    4.0490    1.4840    0.6970 C   0  0
    4.1370   -0.0450   -1.1950 C   0  0
   -5.2770    0.3300   -0.0620 C   0  0
   -3.6560    2.1580    0.0220 C   0  0
    5.2390    2.0920    0.2600 C   0  0
    5.3260    0.5640   -1.6310 C   0  0
   -4.9840    1.6800   -0.0920 C   0  0
   -6.7810    0.2110   -0.2110 C   0  0
    5.8770    1.6330   -0.9040 C   0  0
   -6.2010    2.4510   -0.2460 C   0  0
   -7.2460    1.5920   -0.3160 O   0  0
   -6.2400    3.6580   -0.3010 O   0  0
    0.0900   -1.4880    1.7070 H   0  0
    2.4280   -1.9160   -0.9160 H   0  0
    1.5160   -0.6660   -1.5640 H   0  0
   -1.9940   -1.8420    0.9320 H   0  0
    1.6370    1.4980    1.6250 H   0  0
    0.3560    0.3200    1.3560 H   0  0
    0.8520    1.3960    0.0530 H   0  0
    3.7030   -0.3520    2.0270 H   0  0
    2.1800   -1.1930    2.3730 H   0  0
    3.3500   -1.8970    1.2600 H   0  0
   -4.4590   -1.6560    0.1080 H   0  0
   -1.5860    1.5980    0.2480 H   0  0
    3.5650    1.8440    1.5940 H   0  0
    3.7170   -0.8650   -1.7600 H   0  0
   -3.4510    3.2190   -0.0040 H   0  0
    5.6620    2.9140    0.8200 H   0  0
    5.8170    0.2090   -2.5270 H   0  0
   -7.2280   -0.2560    0.6540 H   0  0
   -7.0510   -0.3320   -1.1050 H   0  0
    6.7910    2.1000   -1.2400 H   0  0
  1  2  1  0
  2  3  1  0
  2  4  1  0
  2  5  1  0
  5  6  1  0
  5  7  1  0
  5  8  1  0
  7  9  2  0
  7 10  1  0
  8 11  1  0
 10 12  1  0
 11 13  1  0
 11 14  1  0
 11 15  1  0
 12 16  2  0
 12 17  1  0
 13 18  2  0
 13 19  1  0
 16 20  1  0
 17 21  2  0
 18 22  1  0
 19 23  2  0
 20 24  2  0
 20 25  1  0
 22 26  2  0
 24 27  1  0
 25 28  1  0
 27 29  2  0
 21 24  1  0
 23 26  1  0
 27 28  1  0
  6 30  1  0
  8 31  1  0
  8 32  1  0
 10 33  1  0
 14 34  1  0
 14 35  1  0
 14 36  1  0
 15 37  1  0
 15 38  1  0
 15 39  1  0
 16 40  1  0
 17 41  1  0
 18 42  1  0
 19 43  1  0
 21 44  1  0
 22 45  1  0
 23 46  1  0
 25 47  1  0
 25 48  1  0
 26 49  1  0
M  END
> <Name>
CHEMBL196067

> <IC50 nM>
79

> <Molecule_ChEMBL_ID>
CHEMBL196067

> <Smiles>
CC(C)(CC(O)(C(=O)Nc1ccc2c(c1)COC2=O)C(F)(F)F)c1ccccc1

$$$$
CHEMBL336169
  SciTegic08162514323D

 48 52  0  0  0  0            999 V2000
    3.9320   -5.4940    0.7850 F   0  0
    3.5550   -4.2700    0.4260 C   0  0
    2.2700   -3.7950    0.7790 C   0  0
    4.4380   -3.4490   -0.3110 C   0  0
    1.8540   -2.4860    0.4000 C   0  0
    4.0450   -2.1460   -0.6880 C   0  0
    2.7680   -1.6540   -0.3260 C   0  0
    0.5020   -1.9550    0.7230 C   0  0
    2.4470   -0.3910   -0.6780 O   0  0
    0.1390   -0.6760    0.2110 C   0  0
   -0.4340   -2.6700    1.5180 C   0  0
    1.2750    0.1520   -0.3180 C   0  0
   -1.2360   -0.2640    0.2460 C   0  0
   -1.7170   -2.1370    1.7640 C   0  0
    1.2110    1.5000   -0.3980 C   0  0
   -2.1270   -0.9320    1.1390 C   0  0
   -1.8030    0.8070   -0.6450 C   0  0
    2.2990    2.2930   -0.9610 C   0  0
   -3.3690   -0.4370    1.3810 N   0  0
   -3.0080    1.3380   -0.3500 C   0  0
   -1.1170    1.2830   -1.9020 C   0  0
    2.3260    3.6270   -0.6800 O   0  0
    3.3540    1.8770   -1.7750 C   0  0
   -3.8180    0.8830    0.8500 C   0  0
    3.4400    4.0650   -1.3400 C   0  0
    4.0960    3.0310   -2.0220 C   0  0
   -5.2850    0.7700    0.4260 C   0  0
   -3.6840    1.9320    1.9570 C   0  0
    1.6290   -4.4590    1.3360 H   0  0
    5.4160   -3.8160   -0.5880 H   0  0
    4.7250   -1.5230   -1.2500 H   0  0
   -0.2010   -3.6270    1.9610 H   0  0
   -2.3810   -2.6680    2.4320 H   0  0
    0.3540    2.0430   -0.0350 H   0  0
   -4.0140   -0.9530    1.9490 H   0  0
   -3.4140    2.1110   -0.9880 H   0  0
   -1.8130    1.2400   -2.7420 H   0  0
   -0.7300    2.2910   -1.7540 H   0  0
   -0.2750    0.6330   -2.1350 H   0  0
    3.5530    0.8770   -2.1370 H   0  0
    3.7640    5.0980   -1.3300 H   0  0
    4.9960    3.1130   -2.6150 H   0  0
   -5.4260    0.0310   -0.3610 H   0  0
   -5.6540    1.7270    0.0550 H   0  0
   -5.9080    0.4790    1.2720 H   0  0
   -2.6520    2.0430    2.2870 H   0  0
   -4.2850    1.6540    2.8240 H   0  0
   -4.0310    2.9040    1.6090 H   0  0
  1  2  1  0
  2  3  2  0
  2  4  1  0
  3  5  1  0
  4  6  2  0
  5  7  2  0
  5  8  1  0
  7  9  1  0
  8 10  2  0
  8 11  1  0
  9 12  1  0
 10 13  1  0
 11 14  2  0
 12 15  2  0
 13 16  2  0
 13 17  1  0
 15 18  1  0
 16 19  1  0
 17 20  2  0
 17 21  1  0
 18 22  1  0
 18 23  2  0
 19 24  1  0
 22 25  1  0
 23 26  1  0
 24 27  1  0
 24 28  1  0
  6  7  1  0
 10 12  1  0
 14 16  1  0
 20 24  1  0
 25 26  2  0
  3 29  1  0
  4 30  1  0
  6 31  1  0
 11 32  1  0
 14 33  1  0
 15 34  1  0
 19 35  1  0
 20 36  1  0
 21 37  1  0
 21 38  1  0
 21 39  1  0
 23 40  1  0
 25 41  1  0
 26 42  1  0
 27 43  1  0
 27 44  1  0
 27 45  1  0
 28 46  1  0
 28 47  1  0
 28 48  1  0
M  END
> <Name>
CHEMBL336169

> <IC50 nM>
109

> <Molecule_ChEMBL_ID>
CHEMBL336169

> <Smiles>
CC1=CC(C)(C)Nc2ccc3c(c21)/C(=C/c1ccco1)Oc1ccc(F)cc1-3

$$$$
CHEMBL1940692
  SciTegic08162514323D

 71 76  0  0  1  0            999 V2000
    4.2770    1.8050   -0.3420 S   0  0
    5.7560    1.0960    0.0700 C   0  0
    3.1660    0.4570   -0.2460 C   0  0
    6.1990   -0.1720    0.4200 N   0  0
    6.7230    2.1410    0.0140 C   0  0
    1.7790    0.9260   -0.5900 C   0  0
    7.5290   -0.4220    0.7090 C   0  0
    8.0570    1.9180    0.2970 N   0  0
    1.5450    2.0960   -0.7790 O   0  0
    0.6840   -0.1130   -0.6950 C   0  0  2  0  0  0
    8.4810    0.6480    0.6450 C   0  0
    7.9630   -1.7250    1.0640 C   0  0
    0.7890   -0.7050   -1.9800 O   0  0
   -0.7420    0.4410   -0.4570 C   0  0  2  0  0  0
    0.7520   -1.2010    0.4040 C   0  0  1  0  0  0
    9.8440    0.3950    0.9390 C   0  0
    9.3240   -1.9650    1.3570 C   0  0
   -1.5620   -0.8500   -0.3280 C   0  0  1  0  0  0
   -1.4000    1.2700   -1.5760 C   0  0
   -0.7090    1.2170    0.8710 C   0  0
   -0.6840   -1.7310    0.5610 C   0  0
    1.7680   -2.3200    0.1700 C   0  0
   10.2620   -0.9080    1.2950 C   0  0
   -2.9920   -0.5760    0.1740 C   0  0  1  0  0  0
   -2.8790    1.6040   -1.2520 C   0  0  1  0  0  0
   -3.7340    0.3690   -0.8090 C   0  0  2  0  0  0
   -3.7640   -1.9040    0.3140 C   0  0
   -2.9140    2.6370   -0.2830 O   0  0
   -5.1740    0.6930   -0.2790 C   0  0  2  0  0  0
   -5.1970   -1.6780    0.8140 C   0  0
   -5.9320   -0.5980    0.0390 C   0  0
   -5.9260    1.5960   -1.2560 C   0  0
   -5.1310    1.4510    1.0550 C   0  0
   -7.2190   -0.7850   -0.3300 C   0  0
   -7.2070    1.3830   -1.6070 C   0  0
   -7.9490    0.2270   -1.0980 C   0  0
   -9.1350    0.1130   -1.3070 O   0  0
    3.4790   -0.3220   -0.9430 H   0  0
    3.1800    0.0470    0.7640 H   0  0
    6.4260    3.1450   -0.2540 H   0  0
    7.2600   -2.5450    1.1170 H   0  0
    1.6990   -1.0230   -2.0740 H   0  0
    1.0200   -0.7270    1.3380 H   0  0
   10.5760    1.1870    0.8970 H   0  0
    9.6510   -2.9590    1.6290 H   0  0
   -1.6350   -1.3240   -1.2990 H   0  0
   -1.3750    0.7050   -2.5100 H   0  0
   -0.8300    2.1820   -1.7600 H   0  0
   -1.7110    1.4280    1.2440 H   0  0
   -0.1930    2.1700    0.7480 H   0  0
   -0.1800    0.6500    1.6370 H   0  0
   -0.7810   -2.7700    0.2770 H   0  0
   -0.9920   -1.6560    1.5940 H   0  0
    1.6760   -3.0900    0.9380 H   0  0
    1.6210   -2.7750   -0.8090 H   0  0
    2.7850   -1.9320    0.2070 H   0  0
   11.3010   -1.1000    1.5200 H   0  0
   -2.9410   -0.1040    1.1560 H   0  0
   -3.3140    2.0310   -2.1540 H   0  0
   -3.8690   -0.2070   -1.7270 H   0  0
   -3.7910   -2.4260   -0.6450 H   0  0
   -3.2520   -2.5700    1.0100 H   0  0
   -3.3590    3.3970   -0.6910 H   0  0
   -5.7460   -2.6190    0.7730 H   0  0
   -5.1680   -1.3870    1.8630 H   0  0
   -5.4200    2.4470   -1.6910 H   0  0
   -6.0780    1.3850    1.5900 H   0  0
   -4.9160    2.5080    0.8910 H   0  0
   -4.3540    1.0490    1.7010 H   0  0
   -7.7250   -1.6990   -0.0590 H   0  0
   -7.6910    2.0780   -2.2770 H   0  0
  1  2  1  0
  1  3  1  0
  2  4  2  0
  2  5  1  0
  3  6  1  0
  4  7  1  0
  5  8  2  0
  6  9  2  0
  6 10  1  0
  7 11  1  0
  7 12  2  0
 10 13  1  0
 10 14  1  0
 10 15  1  0
 11 16  2  0
 12 17  1  0
 14 18  1  0
 14 19  1  0
 14 20  1  0
 15 21  1  0
 15 22  1  0
 16 23  1  0
 18 24  1  0
 19 25  1  0
 26 24  1  0
 24 27  1  0
 25 28  1  0
 26 29  1  0
 27 30  1  0
 29 31  1  0
 29 32  1  0
 29 33  1  0
 31 34  2  0
 32 35  2  0
 34 36  1  0
 36 37  2  0
  8 11  1  0
 17 23  2  0
 18 21  1  0
 25 26  1  0
 30 31  1  0
 35 36  1  0
  3 38  1  0
  3 39  1  0
  5 40  1  0
 12 41  1  0
 13 42  1  0
 15 43  1  0
 16 44  1  0
 17 45  1  0
 18 46  1  0
 19 47  1  0
 19 48  1  0
 20 49  1  0
 20 50  1  0
 20 51  1  0
 21 52  1  0
 21 53  1  0
 22 54  1  0
 22 55  1  0
 22 56  1  0
 23 57  1  0
 24 58  1  0
 25 59  1  0
 26 60  1  0
 27 61  1  0
 27 62  1  0
 28 63  1  0
 30 64  1  0
 30 65  1  0
 32 66  1  0
 33 67  1  0
 33 68  1  0
 33 69  1  0
 34 70  1  0
 35 71  1  0
M  END
> <Name>
CHEMBL1940692

> <IC50 nM>
37.9

> <Molecule_ChEMBL_ID>
CHEMBL1940692

> <Smiles>
C[C@@H]1C[C@H]2[C@@H]3CCC4=CC(=O)C=C[C@]4(C)[C@H]3[C@@H](O)C[C@]2(C)[C@@]1(O)C(=O)CSc1cnc2ccccc2n1

$$$$
CHEMBL1940697
  SciTegic08162514323D

 68 73  0  0  1  0            999 V2000
    3.8610    1.9140   -2.0630 S   0  0
    4.1500    2.7210   -0.6070 C   0  0
    4.1620    0.2420   -1.6370 C   0  0
    4.5220    2.4200    0.7070 O   0  0
    3.9550    4.0880   -0.8180 N   0  0
    3.1090   -0.2290   -0.6700 C   0  0
    4.5310    3.6480    1.2340 C   0  0
    4.2070    4.6480    0.3770 C   0  0
    3.3150   -0.2290    0.5210 O   0  0
    1.7890   -0.6970   -1.2320 C   0  0  2  0  0  0
    4.8400    4.0140    2.5680 C   0  0
    4.1190    5.9980    0.5700 N   0  0
    1.4710    0.1700   -2.3110 O   0  0
    0.6310   -0.7340   -0.2050 C   0  0  2  0  0  0
    1.8140   -2.1660   -1.7230 C   0  0  1  0  0  0
    4.7830    5.4100    2.8950 C   0  0
    4.4220    6.3670    1.8810 C   0  0
   -0.4260   -1.5410   -0.9860 C   0  0  1  0  0  0
    0.0200    0.6110    0.2380 C   0  0
    1.1310   -1.5220    1.0200 C   0  0
    0.3870   -2.7110   -1.5390 C   0  0
    2.3300   -2.3810   -3.1470 C   0  0
   -1.6450   -1.8560   -0.1040 C   0  0  1  0  0  0
   -1.3200    0.4430    0.9980 C   0  0  1  0  0  0
   -2.2990   -0.4840    0.2300 C   0  0  2  0  0  0
   -2.6370   -2.8710   -0.7170 C   0  0
   -1.0840   -0.0530    2.3030 O   0  0
   -3.7270   -0.6780    0.8220 C   0  0  2  0  0  0
   -3.9240   -2.2420   -1.2680 C   0  0
   -4.5760   -1.2620   -0.3110 C   0  0
   -4.3320    0.6000    1.3970 C   0  0
   -3.7130   -1.6820    1.9820 C   0  0
   -5.8670   -0.9120   -0.4900 C   0  0
   -5.6150    0.9530    1.1820 C   0  0
   -6.4840    0.1460    0.3160 C   0  0
   -7.6740    0.3590    0.2600 O   0  0
    4.1410   -0.3710   -2.5370 H   0  0
    5.1490    0.1560   -1.1820 H   0  0
    5.1070    3.2750    3.3070 H   0  0
    2.1430    0.0350   -2.9940 H   0  0
    2.4590   -2.7380   -1.0660 H   0  0
    5.0100    5.7420    3.8970 H   0  0
    4.3850    7.4140    2.1470 H   0  0
   -0.7750   -0.9670   -1.8360 H   0  0
   -0.1820    1.2270   -0.6390 H   0  0
    0.7360    1.1780    0.8340 H   0  0
    0.3090   -1.9880    1.5640 H   0  0
    1.6560   -0.8650    1.7110 H   0  0
    1.8200   -2.3090    0.7170 H   0  0
    0.3910   -3.5330   -0.8360 H   0  0
   -0.0430   -3.0800   -2.4590 H   0  0
    2.3090   -3.4400   -3.4080 H   0  0
    1.7230   -1.8280   -3.8630 H   0  0
    3.3570   -2.0350   -3.2420 H   0  0
   -1.2870   -2.3130    0.8200 H   0  0
   -1.7560    1.4340    1.1190 H   0  0
   -2.4530    0.0390   -0.7170 H   0  0
   -2.9240   -3.5820    0.0610 H   0  0
   -2.1600   -3.4750   -1.4900 H   0  0
   -1.7130    0.3890    2.8950 H   0  0
   -3.6910   -1.7150   -2.1930 H   0  0
   -4.6290   -3.0310   -1.5310 H   0  0
   -3.7290    1.2520    2.0100 H   0  0
   -4.7210   -1.9880    2.2660 H   0  0
   -3.2380   -1.2480    2.8630 H   0  0
   -3.1560   -2.5780    1.7110 H   0  0
   -6.4570   -1.4040   -1.2500 H   0  0
   -6.0060    1.8440    1.6480 H   0  0
  1  2  1  0
  1  3  1  0
  2  4  1  0
  2  5  2  0
  3  6  1  0
  4  7  1  0
  5  8  1  0
  6  9  2  0
  6 10  1  0
  7 11  1  0
  8 12  1  0
 10 13  1  0
 10 14  1  0
 10 15  1  0
 11 16  2  0
 12 17  2  0
 14 18  1  0
 14 19  1  0
 14 20  1  0
 15 21  1  0
 15 22  1  0
 18 23  1  0
 19 24  1  0
 25 23  1  0
 23 26  1  0
 24 27  1  0
 25 28  1  0
 26 29  1  0
 28 30  1  0
 28 31  1  0
 28 32  1  0
 30 33  2  0
 31 34  2  0
 33 35  1  0
 35 36  2  0
  7  8  2  0
 16 17  1  0
 18 21  1  0
 24 25  1  0
 29 30  1  0
 34 35  1  0
  3 37  1  0
  3 38  1  0
 11 39  1  0
 13 40  1  0
 15 41  1  0
 16 42  1  0
 17 43  1  0
 18 44  1  0
 19 45  1  0
 19 46  1  0
 20 47  1  0
 20 48  1  0
 20 49  1  0
 21 50  1  0
 21 51  1  0
 22 52  1  0
 22 53  1  0
 22 54  1  0
 23 55  1  0
 24 56  1  0
 25 57  1  0
 26 58  1  0
 26 59  1  0
 27 60  1  0
 29 61  1  0
 29 62  1  0
 31 63  1  0
 32 64  1  0
 32 65  1  0
 32 66  1  0
 33 67  1  0
 34 68  1  0
M  END
> <Name>
CHEMBL1940697

> <IC50 nM>
6

> <Molecule_ChEMBL_ID>
CHEMBL1940697

> <Smiles>
C[C@@H]1C[C@H]2[C@@H]3CCC4=CC(=O)C=C[C@]4(C)[C@H]3[C@@H](O)C[C@]2(C)[C@@]1(O)C(=O)CSc1nc2ncccc2o1

$$$$
CHEMBL464907
  SciTegic08162514323D

 55 57  0  0  1  0            999 V2000
   -0.2390   -3.0240   -1.8520 F   0  0
    0.9780   -3.5200   -2.0680 C   0  0
    2.1030   -2.6700   -2.1190 C   0  0
    1.1360   -4.9050   -2.2450 C   0  0
    3.3820   -3.2160   -2.3510 C   0  0
    1.9390   -1.1950   -1.9290 C   0  0
    2.4110   -5.4460   -2.4770 C   0  0
    4.4570   -2.4310   -2.4020 F   0  0
    3.5330   -4.6020   -2.5300 C   0  0
    1.7360   -0.7280   -0.8330 O   0  0
    2.0220   -0.3790   -3.0220 N   0  0
    1.8690    1.0730   -2.8510 C   0  0
    2.2620   -0.9170   -4.3680 C   0  0
    0.4440    1.5160   -3.1830 C   0  0  2  0  0  0
    0.1770    1.1740   -4.5250 O   0  0
    0.4220    3.0410   -3.0650 C   0  0
   -0.6060    0.8420   -2.2990 C   0  0
    1.1880    3.5870   -4.0630 F   0  0
    0.9280    3.4120   -1.8460 F   0  0
   -0.8680    3.4900   -3.1810 F   0  0
   -0.3850    1.1620   -0.8820 N   0  0
   -1.3710    0.8990    0.0260 C   0  0
   -2.4140    0.4040   -0.3310 O   0  0
   -1.1580    1.2190    1.4320 C   0  0
   -2.0670    0.9950    2.4950 C   0  0
    0.0000    1.8130    1.9760 C   0  0
   -1.4460    1.4470    3.6140 N   0  0
   -3.4080    0.3910    2.3770 N   0  0
   -0.2390    1.9220    3.2950 N   0  0
   -1.9490    1.4320    4.8760 C   0  0
   -2.4070    0.2250    5.4390 C   0  0
   -2.0150    2.6230    5.6250 C   0  0
   -2.9270    0.2100    6.7450 C   0  0
   -2.5350    2.6050    6.9300 C   0  0
   -2.9920    1.4000    7.4910 C   0  0
   -3.4850    1.3850    8.7270 F   0  0
    0.2760   -5.5580   -2.2040 H   0  0
    2.5290   -6.5100   -2.6140 H   0  0
    4.5120   -5.0220   -2.7090 H   0  0
    2.5900    1.5870   -3.4860 H   0  0
    2.1270    1.3430   -1.8270 H   0  0
    1.3890   -1.4870   -4.6870 H   0  0
    2.5160   -0.0980   -5.0410 H   0  0
    3.1120   -1.5980   -4.3360 H   0  0
    0.9320    1.4760   -5.0530 H   0  0
   -0.5820   -0.2400   -2.4300 H   0  0
   -1.6100    1.1550   -2.5860 H   0  0
    0.4780    1.5690   -0.5840 H   0  0
    0.9080    2.1280    1.4780 H   0  0
   -3.7860    0.1070    1.4950 H   0  0
   -3.9690    0.2550    3.1930 H   0  0
   -2.3660   -0.7010    4.8810 H   0  0
   -1.6680    3.5600    5.2110 H   0  0
   -3.2770   -0.7180    7.1720 H   0  0
   -2.5830    3.5220    7.5000 H   0  0
  1  2  1  0
  2  3  2  0
  2  4  1  0
  3  5  1  0
  3  6  1  0
  4  7  2  0
  5  8  1  0
  5  9  2  0
  6 10  2  0
  6 11  1  0
 11 12  1  0
 11 13  1  0
 12 14  1  0
 14 15  1  0
 14 16  1  0
 14 17  1  0
 16 18  1  0
 16 19  1  0
 16 20  1  0
 17 21  1  0
 21 22  1  0
 22 23  2  0
 22 24  1  0
 24 25  2  0
 24 26  1  0
 25 27  1  0
 25 28  1  0
 26 29  2  0
 27 30  1  0
 30 31  2  0
 30 32  1  0
 31 33  1  0
 32 34  2  0
 33 35  2  0
 35 36  1  0
  7  9  1  0
 27 29  1  0
 34 35  1  0
  4 37  1  0
  7 38  1  0
  9 39  1  0
 12 40  1  0
 12 41  1  0
 13 42  1  0
 13 43  1  0
 13 44  1  0
 15 45  1  0
 17 46  1  0
 17 47  1  0
 21 48  1  0
 26 49  1  0
 28 50  1  0
 28 51  1  0
 31 52  1  0
 32 53  1  0
 33 54  1  0
 34 55  1  0
M  END
> <Name>
CHEMBL464907

> <IC50 nM>
79.43

> <Molecule_ChEMBL_ID>
CHEMBL464907

> <Smiles>
CN(CC(O)(CNC(=O)c1cnn(-c2ccc(F)cc2)c1N)C(F)(F)F)C(=O)c1c(F)cccc1F

$$$$
CHEMBL4208262
  SciTegic08162514323D

 58 61  0  0  1  0            999 V2000
    6.4140    6.0450   -1.3460 F   0  0
    5.9260    4.8090   -1.2500 C   0  0
    6.4570    3.7810   -2.0470 C   0  0
    4.8810    4.5330   -0.3520 C   0  0
    5.9410    2.4770   -1.9470 C   0  0
    4.3630    3.2310   -0.2500 C   0  0
    4.8950    2.1970   -1.0490 C   0  0
    4.3960    0.9380   -0.9510 N   0  0
    5.1460   -0.2190   -0.9280 N   0  0
    3.0900    0.5820   -0.8610 C   0  0
    4.4160   -1.3850   -0.8220 C   0  0
    3.1640   -0.7950   -0.7870 C   0  0
    1.8670    1.2930   -0.8340 C   0  0
    1.9670   -1.5510   -0.6800 C   0  0
    0.6700    0.5430   -0.7270 C   0  0
    0.7190   -0.8750   -0.6510 C   0  0
   -0.4180   -1.5780   -0.5470 O   0  0
   -1.5740   -0.9100   -0.0610 C   0  0  2  0  0  0
   -1.2850   -0.3320    1.2770 C   0  0
   -2.7460   -1.8910   -0.0100 C   0  0  1  0  0  0
   -1.6780    0.9860    1.5760 C   0  0
   -0.6170   -1.1000    2.2480 C   0  0
   -3.9980   -1.1970    0.3240 N   0  0
   -2.8930   -2.7010   -1.2970 C   0  0
   -1.4040    1.5310    2.8420 C   0  0
   -0.3440   -0.5530    3.5140 C   0  0
   -4.4160   -1.1540    1.6250 C   0  0
   -3.9920   -3.7620   -1.2030 C   0  0
   -3.0290   -1.8180   -2.5370 C   0  0
   -0.7360    0.7620    3.8110 C   0  0
   -3.7600   -1.6820    2.4940 O   0  0
   -5.6990   -0.4410    1.9470 C   0  0
   -5.8950   -0.5390    3.3010 F   0  0
   -6.7520   -1.0250    1.2910 F   0  0
   -5.6170    0.8810    1.5920 F   0  0
    7.2600    3.9880   -2.7380 H   0  0
    4.4690    5.3220    0.2620 H   0  0
    6.3630    1.6970   -2.5680 H   0  0
    3.5610    3.0390    0.4450 H   0  0
    4.7700   -2.4060   -0.7850 H   0  0
    1.8440    2.3710   -0.8930 H   0  0
    1.9940   -2.6310   -0.6190 H   0  0
   -0.2810    1.0530   -0.7050 H   0  0
   -1.8220   -0.1090   -0.7560 H   0  0
   -2.5610   -2.6720    0.7280 H   0  0
   -2.1920    1.5820    0.8360 H   0  0
   -0.3110   -2.1130    2.0250 H   0  0
   -4.5410   -0.7620   -0.3930 H   0  0
   -1.9430   -3.1540   -1.5780 H   0  0
   -1.7070    2.5430    3.0700 H   0  0
    0.1700   -1.1440    4.2580 H   0  0
   -4.0290   -4.3870   -2.0960 H   0  0
   -4.9690   -3.2930   -1.0840 H   0  0
   -3.8260   -4.4120   -0.3460 H   0  0
   -3.1000   -2.4280   -3.4400 H   0  0
   -3.9140   -1.1850   -2.4670 H   0  0
   -2.1620   -1.1660   -2.6430 H   0  0
   -0.5270    1.1840    4.7830 H   0  0
  1  2  1  0
  2  3  2  0
  2  4  1  0
  3  5  1  0
  4  6  2  0
  5  7  2  0
  7  8  1  0
  8  9  1  0
  8 10  1  0
  9 11  2  0
 10 12  1  0
 10 13  2  0
 12 14  2  0
 13 15  1  0
 14 16  1  0
 16 17  1  0
 18 17  1  0
 18 19  1  0
 18 20  1  0
 19 21  2  0
 19 22  1  0
 20 23  1  0
 20 24  1  0
 21 25  1  0
 22 26  2  0
 23 27  1  0
 24 28  1  0
 24 29  1  0
 25 30  2  0
 27 31  2  0
 27 32  1  0
 32 33  1  0
 32 34  1  0
 32 35  1  0
  6  7  1  0
 11 12  1  0
 15 16  2  0
 26 30  1  0
  3 36  1  0
  4 37  1  0
  5 38  1  0
  6 39  1  0
 11 40  1  0
 13 41  1  0
 14 42  1  0
 15 43  1  0
 18 44  1  0
 20 45  1  0
 21 46  1  0
 22 47  1  0
 23 48  1  0
 24 49  1  0
 25 50  1  0
 26 51  1  0
 28 52  1  0
 28 53  1  0
 28 54  1  0
 29 55  1  0
 29 56  1  0
 29 57  1  0
 30 58  1  0
M  END
> <Name>
CHEMBL4208262

> <IC50 nM>
25

> <Molecule_ChEMBL_ID>
CHEMBL4208262

> <Smiles>
CC(C)[C@H](NC(=O)C(F)(F)F)[C@H](Oc1ccc2c(cnn2-c2ccc(F)cc2)c1)c1ccccc1

$$$$
CHEMBL4209337
  SciTegic08162514323D

 48 50  0  0  1  0            999 V2000
   -0.0170   -3.9960    1.8870 Br  0  0
   -1.4430   -2.7680    1.7400 C   0  0
   -1.2070   -1.3750    1.7850 C   0  0
   -2.7580   -3.2520    1.5840 C   0  0
    0.0140   -0.8960    1.9300 O   0  0
   -2.2850   -0.4800    1.6740 C   0  0
   -3.8280   -2.3460    1.4730 C   0  0
    0.3280    0.3320    1.2910 C   0  0  2  0  0  0
   -3.5960   -0.9590    1.5180 C   0  0
   -5.1700   -2.8400    1.3140 C   0  0
   -0.0120    0.2400   -0.1520 C   0  0
    1.8090    0.6520    1.5000 C   0  0  1  0  0  0
   -6.2540   -3.2360    1.1860 N   0  0
   -0.8030    1.2320   -0.7700 C   0  0
    0.4490   -0.8420   -0.9320 C   0  0
    2.1880    1.8790    0.7870 N   0  0
    2.1900    0.7360    2.9790 C   0  0
   -1.1130    1.1430   -2.0960 N   0  0
    0.1330   -0.9200   -2.2600 N   0  0
    3.3520    1.9060    0.0700 C   0  0
    3.6970    0.8770    3.1910 C   0  0
   -0.6370    0.0700   -2.7990 C   0  0
    4.0610    0.9300    0.0210 O   0  0
    3.7250    3.1720   -0.6520 C   0  0
   -0.9800   -0.0210   -4.2580 C   0  0
    4.9160    2.9450   -1.2890 F   0  0
    3.8690    4.2070    0.2340 F   0  0
    2.7660    3.4960   -1.5800 F   0  0
   -1.5800   -1.3030   -4.8070 C   0  0
   -2.4360   -0.0610   -4.6840 C   0  0
   -2.9430   -4.3160    1.5490 H   0  0
   -2.1050    0.5840    1.7070 H   0  0
   -0.2660    1.1190    1.7540 H   0  0
   -4.4100   -0.2520    1.4340 H   0  0
    2.4340   -0.1720    1.1540 H   0  0
   -1.1700    2.0700   -0.1950 H   0  0
    1.0570   -1.6150   -0.4840 H   0  0
    1.6020    2.6890    0.8260 H   0  0
    1.6540    1.5470    3.4710 H   0  0
    1.8030   -0.1230    3.5250 H   0  0
    3.9400    0.8650    4.2540 H   0  0
    4.2350    0.0680    2.6950 H   0  0
    4.0590    1.8200    2.7790 H   0  0
   -0.3010    0.5120   -4.9220 H   0  0
   -1.7750   -2.1230   -4.1150 H   0  0
   -1.2790   -1.6110   -5.8070 H   0  0
   -2.7050    0.4610   -5.6020 H   0  0
   -3.2050   -0.0470   -3.9100 H   0  0
  1  2  1  0
  2  3  2  0
  2  4  1  0
  3  5  1  0
  3  6  1  0
  4  7  2  0
  8  5  1  0
  6  9  2  0
  7 10  1  0
  8 11  1  0
  8 12  1  0
 10 13  3  0
 11 14  2  0
 11 15  1  0
 12 16  1  0
 12 17  1  0
 14 18  1  0
 15 19  2  0
 16 20  1  0
 17 21  1  0
 18 22  2  0
 20 23  2  0
 20 24  1  0
 22 25  1  0
 24 26  1  0
 24 27  1  0
 24 28  1  0
 25 29  1  0
 25 30  1  0
  7  9  1  0
 19 22  1  0
 29 30  1  0
  4 31  1  0
  6 32  1  0
  8 33  1  0
  9 34  1  0
 12 35  1  0
 14 36  1  0
 15 37  1  0
 16 38  1  0
 17 39  1  0
 17 40  1  0
 21 41  1  0
 21 42  1  0
 21 43  1  0
 25 44  1  0
 29 45  1  0
 29 46  1  0
 30 47  1  0
 30 48  1  0
M  END
> <Name>
CHEMBL4209337

> <IC50 nM>
9.6

> <Molecule_ChEMBL_ID>
CHEMBL4209337

> <Smiles>
CC[C@H](NC(=O)C(F)(F)F)[C@H](Oc1ccc(C#N)cc1Br)c1cnc(C2CC2)nc1

$$$$
CHEMBL4072079
  SciTegic08162514323D

 51 53  0  0  1  0            999 V2000
   -2.4260   -1.6840   -5.3090 Br  0  0
   -1.2420   -1.6410   -3.8420 C   0  0
   -1.5900   -0.9340   -2.6760 C   0  0
   -0.0100   -2.3160   -3.9080 C   0  0
   -0.7090   -0.9000   -1.5800 C   0  0
    0.8710   -2.2830   -2.8130 C   0  0
    0.5250   -1.5760   -1.6470 C   0  0
   -1.0880   -0.1500   -0.3540 C   0  0  2  0  0  0
    1.3590   -1.5530   -0.6250 O   0  0
    0.0860    0.4360    0.3070 N   0  0
   -1.8850   -1.0230    0.6150 C   0  0  1  0  0  0
    0.3750    1.7360    0.1350 C   0  0
   -2.3810   -0.1990    1.6460 O   0  0
   -3.0700   -1.7190   -0.0530 C   0  0
   -1.0350   -2.1250    1.2520 C   0  0
    1.7170    2.2090    0.0210 C   0  0
   -0.6860    2.6780    0.0610 C   0  0
   -3.8280   -0.7910   -0.7210 F   0  0
   -3.8380   -2.3320    0.9020 F   0  0
   -2.6090   -2.6560   -0.9410 F   0  0
   -0.9390   -1.9840    2.7480 C   0  0
    1.9800    3.5940   -0.1600 C   0  0
    2.8910    1.2890    0.0880 C   0  0
   -0.4220    4.0550   -0.1210 C   0  0
    0.2210   -1.5640    3.2790 C   0  0
   -2.0840   -2.2930    3.6760 C   0  0
    3.4000    4.0660   -0.2750 C   0  0
    0.9080    4.5140   -0.2320 C   0  0
    4.1470    1.7770   -0.0220 C   0  0
    3.7440    5.2170   -0.4320 O   0  0
    4.4100    3.1210   -0.1970 N   0  0
   -2.5330   -0.4100   -2.6150 H   0  0
    0.2730   -2.8650   -4.7950 H   0  0
    1.8160   -2.8030   -2.8690 H   0  0
   -1.7130    0.6500   -0.7540 H   0  0
    2.1990   -2.0270   -0.6900 H   0  0
    0.6700   -0.1330    0.8870 H   0  0
   -1.6270    0.2970    2.0040 H   0  0
   -0.0450   -2.0350    0.8070 H   0  0
   -1.4280   -3.1090    0.9960 H   0  0
   -1.7170    2.3560    0.1430 H   0  0
    2.7520    0.2250    0.2230 H   0  0
   -1.2400    4.7560   -0.1760 H   0  0
    0.4360   -1.4020    4.3240 H   0  0
    1.0120   -1.3710    2.5680 H   0  0
   -2.3750   -1.3930    4.2170 H   0  0
   -2.9180   -2.7090    3.1090 H   0  0
   -1.7750   -3.0370    4.4080 H   0  0
    1.0980    5.5680   -0.3710 H   0  0
    4.9570    1.0640    0.0330 H   0  0
    5.3650    3.4120   -0.2720 H   0  0
  1  2  1  0
  2  3  2  0
  2  4  1  0
  3  5  1  0
  4  6  2  0
  5  7  2  0
  5  8  1  0
  7  9  1  0
  8 10  1  0
  8 11  1  0
 10 12  1  0
 11 13  1  0
 11 14  1  0
 11 15  1  0
 12 16  2  0
 12 17  1  0
 14 18  1  0
 14 19  1  0
 14 20  1  0
 15 21  1  0
 16 22  1  0
 16 23  1  0
 17 24  2  0
 21 25  2  0
 21 26  1  0
 22 27  1  0
 22 28  2  0
 23 29  2  0
 27 30  2  0
 27 31  1  0
  6  7  1  0
 24 28  1  0
 29 31  1  0
  3 32  1  0
  4 33  1  0
  6 34  1  0
  8 35  1  0
  9 36  1  0
 10 37  1  0
 13 38  1  0
 15 39  1  0
 15 40  1  0
 17 41  1  0
 23 42  1  0
 24 43  1  0
 25 44  1  0
 25 45  1  0
 26 46  1  0
 26 47  1  0
 26 48  1  0
 28 49  1  0
 29 50  1  0
 31 51  1  0
M  END
> <Name>
CHEMBL4072079

> <IC50 nM>
63.1

> <Molecule_ChEMBL_ID>
CHEMBL4072079

> <Smiles>
C=C(C)C[C@@](O)([C@@H](Nc1cccc2c(=O)[nH]ccc12)c1cc(Br)ccc1O)C(F)(F)F

$$$$
CHEMBL4069357
  SciTegic08162514323D

 53 56  0  0  1  0            999 V2000
    4.4430   -3.8130    1.0590 F   0  0
    3.3650   -3.0650    0.8320 C   0  0
    2.0940   -3.4940    1.2730 C   0  0
    3.4960   -1.8420    0.1440 C   0  0
    2.0000   -4.6580    1.9320 O   0  0
    0.9300   -2.7070    1.0250 C   0  0
    2.3610   -1.0350   -0.0780 C   0  0
    1.0720   -1.4340    0.3810 C   0  0
   -0.4060   -3.2290    1.4530 C   0  0  1  0  0  0
   -0.1070   -0.5240    0.1660 C   0  0  2  0  0  0
   -1.5980   -2.4100    0.9220 C   0  0
   -0.6130   -4.6990    1.0640 C   0  0
    0.2130    0.9240    0.3100 N   0  0
   -1.3650   -0.8990    1.0020 C   0  0  1  0  0  0
   -0.1800   -4.9960   -0.3730 C   0  0
    0.2380    1.7190   -0.7770 C   0  0
   -1.1970   -0.5530    2.3690 O   0  0
   -2.6150   -0.1430    0.5250 C   0  0
   -0.1330    3.1030   -0.7400 C   0  0
    0.6520    1.1540   -2.0100 C   0  0
   -2.7720   -0.3260   -0.8240 F   0  0
   -2.4690    1.1950    0.7890 F   0  0
   -3.7170   -0.6210    1.1840 F   0  0
   -0.0840    3.8950   -1.9380 C   0  0
   -0.5590    3.7380    0.4690 C   0  0
    0.7010    1.9340   -3.1860 C   0  0
   -0.4380    5.2300   -1.9220 N   0  0
    0.3360    3.2950   -3.1510 C   0  0
   -0.9180    5.1070    0.4590 C   0  0
   -0.8480    5.8340   -0.7520 C   0  0
   -1.2190    7.2560   -0.7700 C   0  0
    4.4630   -1.5180   -0.2090 H   0  0
    2.7990   -5.1800    2.0880 H   0  0
    2.4940   -0.1040   -0.6060 H   0  0
   -0.4240   -3.1720    2.5430 H   0  0
   -0.3770   -0.6580   -0.8830 H   0  0
   -1.7810   -2.6740   -0.1210 H   0  0
   -2.5060   -2.6920    1.4610 H   0  0
   -0.1020   -5.3600    1.7640 H   0  0
   -1.6480   -4.9980    1.2230 H   0  0
    0.4060    1.3070    1.2130 H   0  0
   -0.3850   -6.0350   -0.6290 H   0  0
   -0.7030   -4.3460   -1.0740 H   0  0
    0.8910   -4.8280   -0.4940 H   0  0
   -0.3090   -0.8400    2.6290 H   0  0
    0.9390    0.1130   -2.0740 H   0  0
   -0.6170    3.1990    1.4020 H   0  0
    1.0200    1.4840   -4.1150 H   0  0
    0.3810    3.8710   -4.0650 H   0  0
   -1.2400    5.5880    1.3730 H   0  0
   -1.1330    7.7310   -1.7480 H   0  0
   -0.5820    7.8070   -0.0780 H   0  0
   -2.2500    7.3670   -0.4360 H   0  0
  1  2  1  0
  2  3  2  0
  2  4  1  0
  3  5  1  0
  3  6  1  0
  4  7  2  0
  6  8  2  0
  6  9  1  0
  8 10  1  0
  9 11  1  0
  9 12  1  0
 10 13  1  0
 10 14  1  0
 12 15  1  0
 13 16  1  0
 14 17  1  0
 14 18  1  0
 16 19  2  0
 16 20  1  0
 18 21  1  0
 18 22  1  0
 18 23  1  0
 19 24  1  0
 19 25  1  0
 20 26  2  0
 24 27  1  0
 24 28  2  0
 25 29  2  0
 27 30  2  0
 30 31  1  0
  7  8  1  0
 11 14  1  0
 26 28  1  0
 29 30  1  0
  4 32  1  0
  5 33  1  0
  7 34  1  0
  9 35  1  0
 10 36  1  0
 11 37  1  0
 11 38  1  0
 12 39  1  0
 12 40  1  0
 13 41  1  0
 15 42  1  0
 15 43  1  0
 15 44  1  0
 17 45  1  0
 20 46  1  0
 25 47  1  0
 26 48  1  0
 28 49  1  0
 29 50  1  0
 31 51  1  0
 31 52  1  0
 31 53  1  0
M  END
> <Name>
CHEMBL4069357

> <IC50 nM>
12.59

> <Molecule_ChEMBL_ID>
CHEMBL4069357

> <Smiles>
CC[C@@H]1C[C@](O)(C(F)(F)F)[C@@H](Nc2cccc3nc(C)ccc23)c2ccc(F)c(O)c21

$$$$
CHEMBL4064352
  SciTegic08162514323D

 52 55  0  0  1  0            999 V2000
   -5.4920   -2.1660    0.5920 F   0  0
   -4.2170   -1.7890    0.5330 C   0  0
   -3.1970   -2.7420    0.3120 C   0  0
   -3.8870   -0.4300    0.6890 C   0  0
   -3.5450   -4.0290    0.1620 O   0  0
   -1.8260   -2.3500    0.2500 C   0  0
   -2.5410   -0.0190    0.6070 C   0  0
   -1.4940   -0.9550    0.3610 C   0  0
   -0.7770   -3.4060    0.0620 C   0  0
   -0.0780   -0.4630    0.2420 C   0  0  2  0  0  0
    0.6600   -2.8750    0.2770 C   0  0
   -0.9100   -3.9960   -1.3480 C   0  0
   -0.9790   -4.5490    1.0720 C   0  0
    0.0530    0.8540   -0.4410 N   0  0
    0.9160   -1.5000   -0.3540 C   0  0  1  0  0  0
    0.4120    1.9450    0.2600 C   0  0
    0.7600   -1.6130   -1.7620 O   0  0
    2.3770   -1.0800   -0.1310 C   0  0
    1.2070    2.9980   -0.2910 C   0  0
   -0.0220    2.0510    1.6070 C   0  0
    2.5820   -0.8340    1.2030 F   0  0
    2.6410    0.0550   -0.8520 F   0  0
    3.2090   -2.0880   -0.5430 F   0  0
    1.5590    4.1390    0.5140 C   0  0
    1.6860    2.9750   -1.6390 C   0  0
    0.3220    3.1720    2.3960 C   0  0
    2.3300    5.1580   -0.0200 N   0  0
    1.1070    4.2110    1.8540 C   0  0
    2.4530    4.0080   -2.1410 N   0  0
   -0.0980    3.2480    3.6580 F   0  0
    2.7660    5.0820   -1.3300 C   0  0
    3.5820    6.1740   -1.8750 C   0  0
   -4.6600    0.3030    0.8730 H   0  0
   -4.4790   -4.2750    0.2110 H   0  0
   -2.3200    1.0310    0.7360 H   0  0
    0.2400   -0.2850    1.2710 H   0  0
    1.3870   -3.6070   -0.0860 H   0  0
    0.8530   -2.7890    1.3500 H   0  0
   -1.7560   -4.6800   -1.4240 H   0  0
   -0.0120   -4.5470   -1.6230 H   0  0
   -1.0550   -3.2050   -2.0840 H   0  0
   -1.7660   -5.2320    0.7600 H   0  0
   -1.2500   -4.1540    2.0530 H   0  0
   -0.0630   -5.1270    1.1890 H   0  0
   -0.1230    0.9410   -1.4220 H   0  0
   -0.1520   -1.3570   -1.9690 H   0  0
   -0.6250    1.2720    2.0530 H   0  0
    1.4610    2.1490   -2.2990 H   0  0
    1.3610    5.0590    2.4730 H   0  0
    3.8520    5.9450   -2.9080 H   0  0
    3.0430    7.1150   -1.7790 H   0  0
    4.5060    6.2600   -1.3030 H   0  0
  1  2  1  0
  2  3  2  0
  2  4  1  0
  3  5  1  0
  3  6  1  0
  4  7  2  0
  6  8  2  0
  6  9  1  0
  8 10  1  0
  9 11  1  0
  9 12  1  0
  9 13  1  0
 10 14  1  0
 10 15  1  0
 14 16  1  0
 15 17  1  0
 15 18  1  0
 16 19  2  0
 16 20  1  0
 18 21  1  0
 18 22  1  0
 18 23  1  0
 19 24  1  0
 19 25  1  0
 20 26  2  0
 24 27  1  0
 24 28  2  0
 25 29  2  0
 26 30  1  0
 27 31  2  0
 31 32  1  0
  7  8  1  0
 11 15  1  0
 26 28  1  0
 29 31  1  0
  4 33  1  0
  5 34  1  0
  7 35  1  0
 10 36  1  0
 11 37  1  0
 11 38  1  0
 12 39  1  0
 12 40  1  0
 12 41  1  0
 13 42  1  0
 13 43  1  0
 13 44  1  0
 14 45  1  0
 17 46  1  0
 20 47  1  0
 25 48  1  0
 28 49  1  0
 32 50  1  0
 32 51  1  0
 32 52  1  0
M  END
> <Name>
CHEMBL4064352

> <IC50 nM>
39.81

> <Molecule_ChEMBL_ID>
CHEMBL4064352

> <Smiles>
Cc1ncc2c(N[C@H]3c4ccc(F)c(O)c4C(C)(C)C[C@]3(O)C(F)(F)F)cc(F)cc2n1

$$$$
CHEMBL4215390
  SciTegic08162514323D

 61 64  0  0  1  0            999 V2000
   -3.7540   -4.1700    4.0100 F   0  0
   -4.8050   -3.7620    3.2310 C   0  0
   -5.2210   -2.5220    3.6370 F   0  0
   -4.4040   -3.7350    1.7790 C   0  0
   -5.9570   -4.7580    3.3690 C   0  0
   -4.9730   -4.4240    0.9650 O   0  0
   -3.3830   -2.9120    1.3970 N   0  0
   -2.9800   -2.8730   -0.0180 C   0  0  2  0  0  0
   -1.5840   -2.2720   -0.1720 C   0  0  2  0  0  0
   -4.0290   -2.1560   -0.8670 C   0  0
   -1.6250   -0.8910    0.1560 O   0  0
   -1.0660   -2.4360   -1.5550 C   0  0
   -0.4900   -0.1840    0.0550 C   0  0
   -0.2680   -3.5470   -1.8810 C   0  0
   -1.3750   -1.4830   -2.5410 C   0  0
    0.7620   -0.8590    0.0250 C   0  0
   -0.5450    1.2340   -0.0230 C   0  0
    0.2230   -3.7030   -3.1890 C   0  0
   -0.8850   -1.6390   -3.8500 C   0  0
    1.9570   -0.1040   -0.0840 C   0  0
    0.6500    1.9920   -0.1310 C   0  0
   -0.0880   -2.7480   -4.1740 C   0  0
    1.8650    1.2750   -0.1560 C   0  0
    3.2270   -0.6920   -0.1190 C   0  0
    3.1720    1.5590   -0.2420 N   0  0
    3.9860    0.4630   -0.2250 N   0  0
    3.6800    2.8850   -0.3440 C   0  0
    3.1950    3.8750    0.4450 C   0  0
    4.7500    3.1850   -1.3220 C   0  0
    3.6700    5.1720    0.3690 N   0  0
    5.2210    4.4450   -1.4060 C   0  0
    4.6680    5.5000   -0.5290 C   0  0
    3.0980    6.2010    1.2560 C   0  0
    5.0900    6.6310   -0.6070 O   0  0
    3.9630    6.3910    2.5040 C   0  0
   -6.3070   -4.8340    4.3990 H   0  0
   -5.6480   -5.7520    3.0450 H   0  0
   -6.8030   -4.4530    2.7520 H   0  0
   -2.9140   -2.3440    2.0720 H   0  0
   -2.9670   -3.9400   -0.2400 H   0  0
   -0.8870   -2.7250    0.5330 H   0  0
   -5.0290   -2.5590   -0.7010 H   0  0
   -3.8010   -2.2580   -1.9280 H   0  0
   -4.0550   -1.0940   -0.6310 H   0  0
   -0.0250   -4.2830   -1.1290 H   0  0
   -1.9880   -0.6250   -2.2990 H   0  0
    0.7910   -1.9380    0.0840 H   0  0
   -1.4980    1.7400    0.0000 H   0  0
    0.8360   -4.5570   -3.4370 H   0  0
   -1.1230   -0.9040   -4.6050 H   0  0
    0.6270    3.0700   -0.1890 H   0  0
    0.2890   -2.8690   -5.1800 H   0  0
    3.5680   -1.7190   -0.0800 H   0  0
    2.4140    3.6290    1.1520 H   0  0
    5.1520    2.4140   -1.9630 H   0  0
    6.0020    4.6840   -2.1130 H   0  0
    3.0060    7.1370    0.7050 H   0  0
    2.0820    5.9160    1.5310 H   0  0
    4.0290    5.4610    3.0700 H   0  0
    4.9670    6.7130    2.2310 H   0  0
    3.5330    7.1500    3.1560 H   0  0
  1  2  1  0
  2  3  1  0
  2  4  1  0
  2  5  1  0
  4  6  2  0
  4  7  1  0
  7  8  1  0
  8  9  1  0
  8 10  1  0
  9 11  1  0
  9 12  1  0
 11 13  1  0
 12 14  2  0
 12 15  1  0
 13 16  2  0
 13 17  1  0
 14 18  1  0
 15 19  2  0
 16 20  1  0
 17 21  2  0
 18 22  2  0
 20 23  2  0
 20 24  1  0
 23 25  1  0
 24 26  2  0
 25 27  1  0
 27 28  2  0
 27 29  1  0
 28 30  1  0
 29 31  2  0
 30 32  1  0
 30 33  1  0
 32 34  2  0
 33 35  1  0
 19 22  1  0
 21 23  1  0
 25 26  1  0
 31 32  1  0
  5 36  1  0
  5 37  1  0
  5 38  1  0
  7 39  1  0
  8 40  1  0
  9 41  1  0
 10 42  1  0
 10 43  1  0
 10 44  1  0
 14 45  1  0
 15 46  1  0
 16 47  1  0
 17 48  1  0
 18 49  1  0
 19 50  1  0
 21 51  1  0
 22 52  1  0
 24 53  1  0
 28 54  1  0
 29 55  1  0
 31 56  1  0
 33 57  1  0
 33 58  1  0
 35 59  1  0
 35 60  1  0
 35 61  1  0
M  END
> <Name>
CHEMBL4215390

> <IC50 nM>
2.5

> <Molecule_ChEMBL_ID>
CHEMBL4215390

> <Smiles>
CCn1cc(-n2ncc3cc(O[C@H](c4ccccc4)[C@H](C)NC(=O)C(C)(F)F)ccc32)ccc1=O

$$$$
CHEMBL4213191
  SciTegic08162514323D

 61 64  0  0  1  0            999 V2000
    6.7070    6.0720   -1.5370 F   0  0
    6.2210    4.8380   -1.4420 C   0  0
    6.7500    3.8090   -2.2390 C   0  0
    5.1740    4.5630   -0.5450 C   0  0
    6.2360    2.5040   -2.1390 C   0  0
    4.6580    3.2600   -0.4420 C   0  0
    5.1880    2.2270   -1.2400 C   0  0
    4.6900    0.9670   -1.1430 N   0  0
    5.4400   -0.1900   -1.1190 N   0  0
    3.3830    0.6110   -1.0530 C   0  0
    4.7110   -1.3560   -1.0140 C   0  0
    3.4570   -0.7680   -0.9790 C   0  0
    2.1600    1.3220   -1.0260 C   0  0
    2.2620   -1.5220   -0.8710 C   0  0
    0.9630    0.5720   -0.9180 C   0  0
    1.0120   -0.8460   -0.8420 C   0  0
   -0.1250   -1.5490   -0.7380 O   0  0
   -1.2790   -0.8810   -0.2520 C   0  0  2  0  0  0
   -0.9900   -0.3030    1.0860 C   0  0
   -2.4510   -1.8610   -0.2010 C   0  0  1  0  0  0
   -1.3850    1.0140    1.3850 C   0  0
   -0.3220   -1.0720    2.0560 C   0  0
   -3.7030   -1.1680    0.1330 N   0  0
   -2.6000   -2.6720   -1.4880 C   0  0
   -1.1110    1.5610    2.6500 C   0  0
   -0.0490   -0.5250    3.3220 C   0  0
   -4.1210   -1.1250    1.4330 C   0  0
   -3.6970   -3.7330   -1.3970 C   0  0
   -2.7340   -1.7890   -2.7290 C   0  0
   -0.4430    0.7910    3.6190 C   0  0
   -3.4670   -1.6520    2.3010 O   0  0
   -5.4060   -0.4120    1.7560 C   0  0
   -5.3240    0.9100    1.4000 F   0  0
   -6.4590   -0.9960    1.0990 F   0  0
   -5.6230   -0.5220    3.2650 C   0  0
    7.5550    4.0180   -2.9300 H   0  0
    4.7640    5.3520    0.0700 H   0  0
    6.6580    1.7270   -2.7600 H   0  0
    3.8540    3.0660    0.2540 H   0  0
    5.0630   -2.3790   -0.9770 H   0  0
    2.1370    2.4000   -1.0860 H   0  0
    2.2870   -2.6020   -0.8110 H   0  0
    0.0120    1.0820   -0.8970 H   0  0
   -1.5290   -0.0800   -0.9470 H   0  0
   -2.2680   -2.6430    0.5350 H   0  0
   -1.8960    1.6110    0.6440 H   0  0
   -0.0180   -2.0840    1.8340 H   0  0
   -4.2460   -0.7320   -0.5840 H   0  0
   -1.6480   -3.1250   -1.7700 H   0  0
   -1.4140    2.5720    2.8790 H   0  0
    0.4630   -1.1150    4.0660 H   0  0
   -3.7340   -4.3580   -2.2870 H   0  0
   -4.6760   -3.2640   -1.2760 H   0  0
   -3.5330   -4.3830   -0.5370 H   0  0
   -2.8050   -2.3990   -3.6310 H   0  0
   -3.6210   -1.1580   -2.6580 H   0  0
   -1.8690   -1.1370   -2.8340 H   0  0
   -0.2320    1.2110    4.5920 H   0  0
   -6.5410   -0.0250    3.5820 H   0  0
   -4.7950   -0.0660    3.8080 H   0  0
   -5.6880   -1.5660    3.5700 H   0  0
  1  2  1  0
  2  3  2  0
  2  4  1  0
  3  5  1  0
  4  6  2  0
  5  7  2  0
  7  8  1  0
  8  9  1  0
  8 10  1  0
  9 11  2  0
 10 12  1  0
 10 13  2  0
 12 14  2  0
 13 15  1  0
 14 16  1  0
 16 17  1  0
 18 17  1  0
 18 19  1  0
 18 20  1  0
 19 21  2  0
 19 22  1  0
 20 23  1  0
 20 24  1  0
 21 25  1  0
 22 26  2  0
 23 27  1  0
 24 28  1  0
 24 29  1  0
 25 30  2  0
 27 31  2  0
 27 32  1  0
 32 33  1  0
 32 34  1  0
 32 35  1  0
  6  7  1  0
 11 12  1  0
 15 16  2  0
 26 30  1  0
  3 36  1  0
  4 37  1  0
  5 38  1  0
  6 39  1  0
 11 40  1  0
 13 41  1  0
 14 42  1  0
 15 43  1  0
 18 44  1  0
 20 45  1  0
 21 46  1  0
 22 47  1  0
 23 48  1  0
 24 49  1  0
 25 50  1  0
 26 51  1  0
 28 52  1  0
 28 53  1  0
 28 54  1  0
 29 55  1  0
 29 56  1  0
 29 57  1  0
 30 58  1  0
 35 59  1  0
 35 60  1  0
 35 61  1  0
M  END
> <Name>
CHEMBL4213191

> <IC50 nM>
13

> <Molecule_ChEMBL_ID>
CHEMBL4213191

> <Smiles>
CC(C)[C@H](NC(=O)C(C)(F)F)[C@H](Oc1ccc2c(cnn2-c2ccc(F)cc2)c1)c1ccccc1

$$$$
CHEMBL4208652
  SciTegic08162514323D

 61 64  0  0  1  0            999 V2000
   -2.7320    2.9510    2.8520 Cl  0  0
   -2.0800    1.3790    2.6410 C   0  0
   -2.1700    0.7420    1.3890 C   0  0
   -1.4570    0.7230    3.7170 C   0  0
   -1.6370   -0.5490    1.2150 C   0  0
   -0.9260   -0.5660    3.5430 C   0  0
   -1.0160   -1.2030    2.2930 C   0  0
   -1.7300   -1.2190   -0.1070 C   0  0  1  0  0  0
   -0.5270   -1.9280   -0.3670 O   0  0
   -2.9140   -2.1870   -0.1660 C   0  0  1  0  0  0
    0.6070   -1.2230   -0.4690 C   0  0
   -4.1890   -1.4670   -0.0450 N   0  0
   -2.8960   -3.0660   -1.4160 C   0  0
    1.8590   -1.8960   -0.4980 C   0  0
    0.5530    0.1970   -0.5450 C   0  0
   -4.7890   -1.3650    1.1780 C   0  0
   -4.0020   -4.1230   -1.4100 C   0  0
   -2.8650   -2.2520   -2.7090 C   0  0
    3.0550   -1.1400   -0.6050 C   0  0
    1.7480    0.9550   -0.6520 C   0  0
   -4.2750   -1.8630    2.1520 O   0  0
   -6.0960   -0.6250    1.2830 C   0  0
    2.9630    0.2380   -0.6780 C   0  0
    4.3240   -1.7280   -0.6420 C   0  0
   -6.4840   -0.6640    2.5980 F   0  0
   -7.0510   -1.2260    0.5060 F   0  0
   -5.9410    0.6800    0.8910 F   0  0
    4.2700    0.5220   -0.7660 N   0  0
    5.0840   -0.5740   -0.7480 N   0  0
    4.7770    1.8480   -0.8670 C   0  0
    4.2910    2.8380   -0.0800 C   0  0
    5.8520    2.1490   -1.8420 C   0  0
    4.7640    4.1370   -0.1580 N   0  0
    6.3220    3.4060   -1.9260 C   0  0
    5.7660    4.4630   -1.0530 C   0  0
    4.1900    5.1660    0.7270 C   0  0
    6.1880    5.5940   -1.1310 O   0  0
   -2.6480    1.2380    0.5550 H   0  0
   -1.3790    1.1990    4.6840 H   0  0
   -0.4470   -1.0700    4.3710 H   0  0
   -0.6050   -2.1930    2.1660 H   0  0
   -1.8590   -0.4690   -0.8890 H   0  0
   -2.8440   -2.9300    0.6310 H   0  0
   -4.6150   -1.0560   -0.8500 H   0  0
   -1.9200   -3.5330   -1.5470 H   0  0
    1.8890   -2.9740   -0.4390 H   0  0
   -0.4000    0.7030   -0.5230 H   0  0
   -3.9120   -4.8090   -2.2520 H   0  0
   -4.9840   -3.6520   -1.4690 H   0  0
   -3.9690   -4.7110   -0.4940 H   0  0
   -2.8400   -2.9100   -3.5780 H   0  0
   -3.7380   -1.6050   -2.7790 H   0  0
   -1.9790   -1.6190   -2.7440 H   0  0
    1.7250    2.0330   -0.7130 H   0  0
    4.6660   -2.7560   -0.6030 H   0  0
    3.5080    2.5940    0.6250 H   0  0
    6.2560    1.3750   -2.4780 H   0  0
    7.1080    3.6450   -2.6310 H   0  0
    3.4060    4.8110    1.3970 H   0  0
    3.7680    5.9670    0.1170 H   0  0
    4.9830    5.5960    1.3380 H   0  0
  1  2  1  0
  2  3  2  0
  2  4  1  0
  3  5  1  0
  4  6  2  0
  5  7  2  0
  5  8  1  0
  8  9  1  0
  8 10  1  0
  9 11  1  0
 10 12  1  0
 10 13  1  0
 11 14  2  0
 11 15  1  0
 12 16  1  0
 13 17  1  0
 13 18  1  0
 14 19  1  0
 15 20  2  0
 16 21  2  0
 16 22  1  0
 19 23  2  0
 19 24  1  0
 22 25  1  0
 22 26  1  0
 22 27  1  0
 23 28  1  0
 24 29  2  0
 28 30  1  0
 30 31  2  0
 30 32  1  0
 31 33  1  0
 32 34  2  0
 33 35  1  0
 33 36  1  0
 35 37  2  0
  6  7  1  0
 20 23  1  0
 28 29  1  0
 34 35  1  0
  3 38  1  0
  4 39  1  0
  6 40  1  0
  7 41  1  0
  8 42  1  0
 10 43  1  0
 12 44  1  0
 13 45  1  0
 14 46  1  0
 15 47  1  0
 17 48  1  0
 17 49  1  0
 17 50  1  0
 18 51  1  0
 18 52  1  0
 18 53  1  0
 20 54  1  0
 24 55  1  0
 31 56  1  0
 32 57  1  0
 34 58  1  0
 36 59  1  0
 36 60  1  0
 36 61  1  0
M  END
> <Name>
CHEMBL4208652

> <IC50 nM>
420

> <Molecule_ChEMBL_ID>
CHEMBL4208652

> <Smiles>
CC(C)[C@H](NC(=O)C(F)(F)F)[C@H](Oc1ccc2c(cnn2-c2ccc(=O)n(C)c2)c1)c1cccc(Cl)c1

$$$$
CHEMBL4207016
  SciTegic08162514323D

 64 67  0  0  1  0            999 V2000
   -1.9180    2.5200    2.8850 F   0  0
   -1.4510    1.3070    2.6040 C   0  0
   -0.6990    0.6040    3.5610 C   0  0
   -1.7090    0.7270    1.3500 C   0  0
   -0.2030   -0.6780    3.2640 C   0  0
   -1.2130   -0.5550    1.0510 C   0  0
    0.5080   -1.3440    4.1720 F   0  0
   -0.4590   -1.2580    2.0080 C   0  0
   -1.4830   -1.1660   -0.2770 C   0  0  1  0  0  0
   -0.3180   -1.8400   -0.7340 O   0  0
   -2.6510   -2.1520   -0.2150 C   0  0  1  0  0  0
    0.8160   -1.1330   -0.8360 C   0  0
   -3.9180   -1.4530    0.0370 N   0  0
   -2.7460   -3.0310   -1.4610 C   0  0
    2.0660   -1.8090   -0.8670 C   0  0
    0.7620    0.2850   -0.9140 C   0  0
   -4.3650   -1.3160    1.3200 C   0  0
   -3.7990   -4.1330   -1.3280 C   0  0
   -2.9040   -2.2190   -2.7460 C   0  0
    3.2640   -1.0530   -0.9750 C   0  0
    1.9550    1.0430   -1.0210 C   0  0
   -3.7270   -1.7680    2.2400 O   0  0
   -5.6660   -0.5980    1.5590 C   0  0
    3.1720    0.3260   -1.0470 C   0  0
    4.5330   -1.6410   -1.0120 C   0  0
   -5.5920    0.6930    1.1060 F   0  0
   -6.6960   -1.2440    0.9260 F   0  0
   -5.9180   -0.5940    3.0670 C   0  0
    4.4780    0.6090   -1.1350 N   0  0
    5.2910   -0.4860   -1.1170 N   0  0
    4.9860    1.9360   -1.2360 C   0  0
    4.5080    2.9240   -0.4390 C   0  0
    6.0490    2.2400   -2.2210 C   0  0
    4.9820    4.2210   -0.5160 N   0  0
    6.5210    3.4980   -2.3050 C   0  0
    5.9730    4.5510   -1.4220 C   0  0
    4.4180    5.2480    0.3770 C   0  0
    6.3960    5.6820   -1.5000 O   0  0
   -0.5020    1.0490    4.5260 H   0  0
   -2.2890    1.2680    0.6130 H   0  0
   -0.0760   -2.2420    1.7790 H   0  0
   -1.7310   -0.3850   -0.9940 H   0  0
   -2.4880   -2.8930    0.5680 H   0  0
   -4.4490   -1.0800   -0.7250 H   0  0
   -1.7740   -3.4570   -1.7110 H   0  0
    2.0960   -2.8870   -0.8090 H   0  0
   -0.1930    0.7910   -0.8910 H   0  0
   -3.8050   -4.7970   -2.1910 H   0  0
   -4.7970   -3.7030   -1.2320 H   0  0
   -3.6120   -4.7400   -0.4410 H   0  0
   -2.8360   -2.8630   -3.6230 H   0  0
   -3.8650   -1.7030   -2.7600 H   0  0
   -2.1210   -1.4650   -2.8240 H   0  0
    1.9340    2.1210   -1.0800 H   0  0
    4.8750   -2.6680   -0.9730 H   0  0
   -6.8480   -0.0880    3.3220 H   0  0
   -5.1080   -0.0880    3.5920 H   0  0
   -5.9770   -1.6130    3.4490 H   0  0
    3.7320    2.6760    0.2720 H   0  0
    6.4470    1.4690   -2.8650 H   0  0
    7.2970    3.7380   -3.0180 H   0  0
    3.6430    4.8910    1.0550 H   0  0
    3.9900    6.0510   -0.2250 H   0  0
    5.2170    5.6760    0.9820 H   0  0
  1  2  1  0
  2  3  2  0
  2  4  1  0
  3  5  1  0
  4  6  2  0
  5  7  1  0
  5  8  2  0
  6  9  1  0
  9 10  1  0
  9 11  1  0
 10 12  1  0
 11 13  1  0
 11 14  1  0
 12 15  2  0
 12 16  1  0
 13 17  1  0
 14 18  1  0
 14 19  1  0
 15 20  1  0
 16 21  2  0
 17 22  2  0
 17 23  1  0
 20 24  2  0
 20 25  1  0
 23 26  1  0
 23 27  1  0
 23 28  1  0
 24 29  1  0
 25 30  2  0
 29 31  1  0
 31 32  2  0
 31 33  1  0
 32 34  1  0
 33 35  2  0
 34 36  1  0
 34 37  1  0
 36 38  2  0
  6  8  1  0
 21 24  1  0
 29 30  1  0
 35 36  1  0
  3 39  1  0
  4 40  1  0
  8 41  1  0
  9 42  1  0
 11 43  1  0
 13 44  1  0
 14 45  1  0
 15 46  1  0
 16 47  1  0
 18 48  1  0
 18 49  1  0
 18 50  1  0
 19 51  1  0
 19 52  1  0
 19 53  1  0
 21 54  1  0
 25 55  1  0
 28 56  1  0
 28 57  1  0
 28 58  1  0
 32 59  1  0
 33 60  1  0
 35 61  1  0
 37 62  1  0
 37 63  1  0
 37 64  1  0
M  END
> <Name>
CHEMBL4207016

> <IC50 nM>
120

> <Molecule_ChEMBL_ID>
CHEMBL4207016

> <Smiles>
CC(C)[C@H](NC(=O)C(C)(F)F)[C@H](Oc1ccc2c(cnn2-c2ccc(=O)n(C)c2)c1)c1cc(F)cc(F)c1

$$$$
CHEMBL4066614
  SciTegic08162514323D

 61 65  0  0  1  0            999 V2000
    3.5180    3.9840   -7.8560 F   0  0
    2.7990    3.4280   -6.8830 C   0  0
    1.4710    3.8340   -6.6720 C   0  0
    3.3670    2.4360   -6.0680 C   0  0
    0.7090    3.2480   -5.6450 C   0  0
    2.6090    1.8480   -5.0390 C   0  0
    1.2770    2.2540   -4.8260 C   0  0
    0.5450    1.6860   -3.8320 N   0  0
   -0.7710    1.2910   -3.9390 N   0  0
    0.9590    1.4080   -2.5720 C   0  0
   -1.3070    0.7380   -2.7930 C   0  0
   -0.1720    0.8500   -2.0060 C   0  0
    2.1740    1.5740   -1.8650 C   0  0
   -0.1330    0.4180   -0.6560 C   0  0
    2.2170    1.1440   -0.5160 C   0  0
    1.0660    0.5660    0.0880 C   0  0
    1.1150    0.1620    1.3650 O   0  0
    0.1310   -0.7600    1.8110 C   0  0  2  0  0  0
   -1.0900   -0.0290    2.1840 C   0  0
    0.6840   -1.5680    2.9840 C   0  0  1  0  0  0
   -2.3500   -0.6680    2.1000 C   0  0
   -1.0040    1.3120    2.6270 C   0  0
    1.8070   -2.4160    2.5570 N   0  0
    1.0820   -0.6900    4.1700 C   0  0
   -3.5270    0.0350    2.4570 C   0  0
   -2.1760    2.0190    2.9880 C   0  0
    1.5490   -3.6250    1.9750 C   0  0
   -3.4360    1.3830    2.9020 C   0  0
   -4.8610   -0.6170    2.3730 C   0  0
    0.4080   -3.9940    1.8110 O   0  0
    2.7090   -4.4810    1.5430 C   0  0
   -4.5630    2.0430    3.2480 O   0  0
   -5.8320    0.0550    3.1720 O   0  0
    3.4670   -3.8260    0.6060 F   0  0
    3.4940   -4.8030    2.6190 F   0  0
    2.1330   -5.7580    0.9320 C   0  0
   -5.8480    1.4630    2.9750 C   0  0
    1.0290    4.5980   -7.2970 H   0  0
    4.3890    2.1210   -6.2270 H   0  0
   -0.3110    3.5740   -5.4980 H   0  0
    3.0660    1.0860   -4.4220 H   0  0
   -2.3050    0.3550   -2.6250 H   0  0
    3.0410    2.0140   -2.3360 H   0  0
   -1.0040   -0.0220   -0.1870 H   0  0
    3.1270    1.2560    0.0530 H   0  0
   -0.0900   -1.4430    0.9920 H   0  0
   -0.0940   -2.1950    3.4200 H   0  0
   -2.4160   -1.6910    1.7600 H   0  0
   -0.0450    1.8050    2.6930 H   0  0
    2.7500   -2.1130    2.6920 H   0  0
    1.4800   -1.2990    4.9830 H   0  0
    1.8340    0.0410    3.8730 H   0  0
    0.2190   -0.1470    4.5530 H   0  0
   -2.1070    3.0410    3.3260 H   0  0
   -5.2030   -0.6070    1.3360 H   0  0
   -4.8160   -1.6560    2.7010 H   0  0
    2.9180   -6.4360    0.5920 H   0  0
    1.5020   -5.5260    0.0740 H   0  0
    1.5230   -6.2930    1.6580 H   0  0
   -6.5920    1.9200    3.6270 H   0  0
   -6.1170    1.6760    1.9400 H   0  0
  1  2  1  0
  2  3  2  0
  2  4  1  0
  3  5  1  0
  4  6  2  0
  5  7  2  0
  7  8  1  0
  8  9  1  0
  8 10  1  0
  9 11  2  0
 10 12  1  0
 10 13  2  0
 12 14  2  0
 13 15  1  0
 14 16  1  0
 16 17  1  0
 18 17  1  0
 18 19  1  0
 18 20  1  0
 19 21  2  0
 19 22  1  0
 20 23  1  0
 20 24  1  0
 21 25  1  0
 22 26  2  0
 23 27  1  0
 25 28  2  0
 25 29  1  0
 27 30  2  0
 27 31  1  0
 28 32  1  0
 29 33  1  0
 31 34  1  0
 31 35  1  0
 31 36  1  0
 32 37  1  0
  6  7  1  0
 11 12  1  0
 15 16  2  0
 26 28  1  0
 33 37  1  0
  3 38  1  0
  4 39  1  0
  5 40  1  0
  6 41  1  0
 11 42  1  0
 13 43  1  0
 14 44  1  0
 15 45  1  0
 18 46  1  0
 20 47  1  0
 21 48  1  0
 22 49  1  0
 23 50  1  0
 24 51  1  0
 24 52  1  0
 24 53  1  0
 26 54  1  0
 29 55  1  0
 29 56  1  0
 36 57  1  0
 36 58  1  0
 36 59  1  0
 37 60  1  0
 37 61  1  0
M  END
> <Name>
CHEMBL4066614

> <IC50 nM>
0.32

> <Molecule_ChEMBL_ID>
CHEMBL4066614

> <Smiles>
C[C@H](NC(=O)C(C)(F)F)[C@H](Oc1ccc2c(cnn2-c2ccc(F)cc2)c1)c1ccc2c(c1)COCO2

$$$$
CHEMBL1762207
  SciTegic08162514323D

 60 63  0  0  0  0            999 V2000
   -0.8930    0.7850    0.6700 F   0  0
   -0.7870   -0.5450    0.6250 C   0  0
   -1.9710   -1.3280    0.6910 C   0  0
    0.4880   -1.1880    0.5180 C   0  0
   -1.9020   -2.7400    0.6540 C   0  0
   -3.2730   -0.6760    0.8010 C   0  0
    0.5490   -2.6170    0.4470 C   0  0
    1.7770   -0.4020    0.4880 C   0  0
   -3.0020   -3.4900    0.7280 F   0  0
   -0.6460   -3.3750    0.5350 C   0  0
   -4.2460   -0.7990   -0.2230 C   0  0
   -3.5820    0.1010    1.9490 C   0  0
    1.7290   -3.2740    0.2910 N   0  0
    1.8280    0.8850    0.4040 N   0  0
    3.0720   -1.1930    0.5720 C   0  0
   -4.2460   -1.4750   -1.4380 N   0  0
   -5.4690   -0.1840   -0.1190 C   0  0
   -4.8480    0.7380    2.0530 C   0  0
    2.9790   -2.5720   -0.1070 C   0  0
    3.0610    1.6190    0.3850 O   0  0
   -5.5020   -1.2380   -2.0470 C   0  0
   -6.2600   -0.4200   -1.1910 C   0  0
   -5.8070    0.6000    1.0140 C   0  0
    4.1860   -3.4260    0.2990 C   0  0
    2.9810   -2.4140   -1.6330 C   0  0
    2.6740    2.9820    0.2870 C   0  0
   -7.6680    0.0840   -1.4410 C   0  0
    4.0350    3.6270    0.2730 C   0  0
    1.9100    3.2050   -1.0180 C   0  0
    1.8590    3.3690    1.5210 C   0  0
    4.4260    4.2770    1.2130 O   0  0
    4.7460    3.4220   -0.8320 O   0  0
    6.0180    4.0550   -0.7810 C   0  0
   -0.6150   -4.4570    0.5080 H   0  0
   -2.8630    0.2170    2.7480 H   0  0
    1.7660   -4.2680    0.4140 H   0  0
    3.9060   -0.6410    0.1330 H   0  0
    3.3200   -1.3180    1.6270 H   0  0
   -3.5060   -2.0200   -1.8130 H   0  0
   -5.0820    1.3280    2.9260 H   0  0
   -5.7890   -1.6410   -3.0100 H   0  0
   -6.7680    1.0860    1.0980 H   0  0
    4.2210   -3.5940    1.3750 H   0  0
    5.1170   -2.9400    0.0080 H   0  0
    4.1510   -4.4010   -0.1890 H   0  0
    2.1310   -1.8260   -1.9810 H   0  0
    2.9380   -3.3870   -2.1210 H   0  0
    3.8890   -1.9120   -1.9670 H   0  0
   -8.0680    0.7090   -0.6430 H   0  0
   -8.3400   -0.7660   -1.5700 H   0  0
   -7.6880    0.6660   -2.3630 H   0  0
    2.3910    2.7030   -1.8590 H   0  0
    1.8500    4.2680   -1.2540 H   0  0
    0.8930    2.8220   -0.9400 H   0  0
    2.3110    2.9980    2.4390 H   0  0
    0.8500    2.9650    1.4590 H   0  0
    1.7770    4.4530    1.6050 H   0  0
    6.5720    3.7770   -1.6780 H   0  0
    5.8610    5.1210   -0.6210 H   0  0
    6.5590    3.6640    0.0800 H   0  0
  1  2  1  0
  2  3  2  0
  2  4  1  0
  3  5  1  0
  3  6  1  0
  4  7  2  0
  4  8  1  0
  5  9  1  0
  5 10  2  0
  6 11  2  0
  6 12  1  0
  7 13  1  0
  8 14  2  0
  8 15  1  0
 11 16  1  0
 11 17  1  0
 12 18  2  0
 13 19  1  0
 14 20  1  0
 16 21  1  0
 17 22  1  0
 17 23  2  0
 19 24  1  0
 19 25  1  0
 20 26  1  0
 22 27  1  0
 26 28  1  0
 26 29  1  0
 26 30  1  0
 28 31  2  0
 28 32  1  0
 32 33  1  0
  7 10  1  0
 15 19  1  0
 18 23  1  0
 21 22  2  0
 10 34  1  0
 12 35  1  0
 13 36  1  0
 15 37  1  0
 15 38  1  0
 16 39  1  0
 18 40  1  0
 21 41  1  0
 23 42  1  0
 24 43  1  0
 24 44  1  0
 24 45  1  0
 25 46  1  0
 25 47  1  0
 25 48  1  0
 27 49  1  0
 27 50  1  0
 27 51  1  0
 29 52  1  0
 29 53  1  0
 29 54  1  0
 30 55  1  0
 30 56  1  0
 30 57  1  0
 33 58  1  0
 33 59  1  0
 33 60  1  0
M  END
> <Name>
CHEMBL1762207

> <IC50 nM>
22

> <Molecule_ChEMBL_ID>
CHEMBL1762207

> <Smiles>
COC(=O)C(C)(C)O/N=C1\CC(C)(C)Nc2cc(F)c(-c3cccc4c(C)c[nH]c34)c(F)c21

$$$$
CHEMBL462100
  SciTegic08162514323D

 50 53  0  0  1  0            999 V2000
    1.8610   -1.2310    5.4500 O   0  0
    1.4890   -0.7330    4.2630 C   0  0
    2.4170   -0.6710    3.2000 C   0  0
    0.1690   -0.2660    4.0740 C   0  0
    2.0280   -0.1410    1.9440 C   0  0
   -0.2270    0.2550    2.8210 C   0  0
    0.6940    0.3150    1.7370 C   0  0
    3.0070   -0.0450    0.8340 C   0  0
    0.3240    0.8370    0.3790 C   0  0  1  0  0  0
    2.4140   -0.3930   -0.5480 C   0  0
    0.8920   -0.1400   -0.6940 C   0  0  2  0  0  0
   -1.2100    0.9700    0.1610 C   0  0
    0.9530    2.2300    0.2150 C   0  0
    0.5260    0.2830   -2.1330 C   0  0
   -1.5810    1.3970   -1.2710 C   0  0
    0.7050    3.1360    1.4210 C   0  0
   -0.9970    0.4460   -2.3380 C   0  0  1  0  0  0
   -1.2070    1.0330   -3.6070 O   0  0
   -1.6960   -0.8720   -2.3380 C   0  0
   -3.1010   -0.9240   -2.3380 C   0  0
   -0.9490   -2.0640   -2.3380 C   0  0
   -3.7590   -2.1660   -2.3380 C   0  0
   -1.6080   -3.3060   -2.3380 C   0  0
   -3.0120   -3.3570   -2.3380 C   0  0
    2.7660   -1.5460    5.5670 H   0  0
    3.4250   -1.0270    3.3510 H   0  0
   -0.5400   -0.3060    4.8880 H   0  0
   -1.2430    0.6020    2.7170 H   0  0
    3.3710    0.9820    0.8140 H   0  0
    3.8840   -0.6660    1.0230 H   0  0
    2.9660    0.1700   -1.3020 H   0  0
    2.6130   -1.4420   -0.7730 H   0  0
    0.4120   -1.1060   -0.5220 H   0  0
   -1.6320    1.7040    0.8490 H   0  0
   -1.7050    0.0220    0.3820 H   0  0
    2.0200    2.1480    0.0070 H   0  0
    0.6040    2.7050   -0.7020 H   0  0
    1.0290    1.2260   -2.3530 H   0  0
    0.9330   -0.4390   -2.8440 H   0  0
   -1.2080    2.4100   -1.4340 H   0  0
   -2.6670    1.4660   -1.3620 H   0  0
    1.1110    4.1320    1.2450 H   0  0
   -0.3620    3.2180    1.6280 H   0  0
    1.1870    2.7320    2.3120 H   0  0
   -2.1580    1.2060   -3.6880 H   0  0
   -3.6810   -0.0120   -2.3380 H   0  0
    0.1300   -2.0320   -2.3380 H   0  0
   -4.8380   -2.2050   -2.3380 H   0  0
   -1.0340   -4.2210   -2.3380 H   0  0
   -3.5180   -4.3120   -2.3380 H   0  0
  1  2  1  0
  2  3  2  0
  2  4  1  0
  3  5  1  0
  4  6  2  0
  5  7  2  0
  5  8  1  0
  7  9  1  0
  8 10  1  0
  9 11  1  0
  9 12  1  0
  9 13  1  0
 11 14  1  0
 12 15  1  0
 13 16  1  0
 14 17  1  0
 17 18  1  0
 17 19  1  0
 19 20  2  0
 19 21  1  0
 20 22  1  0
 21 23  2  0
 22 24  2  0
  6  7  1  0
 10 11  1  0
 15 17  1  0
 23 24  1  0
  1 25  1  0
  3 26  1  0
  4 27  1  0
  6 28  1  0
  8 29  1  0
  8 30  1  0
 10 31  1  0
 10 32  1  0
 11 33  1  0
 12 34  1  0
 12 35  1  0
 13 36  1  0
 13 37  1  0
 14 38  1  0
 14 39  1  0
 15 40  1  0
 15 41  1  0
 16 42  1  0
 16 43  1  0
 16 44  1  0
 18 45  1  0
 20 46  1  0
 21 47  1  0
 22 48  1  0
 23 49  1  0
 24 50  1  0
M  END
> <Name>
CHEMBL462100

> <IC50 nM>
5000

> <Molecule_ChEMBL_ID>
CHEMBL462100

> <Smiles>
CC[C@@]12CC[C@](O)(c3ccccc3)C[C@H]1CCc1cc(O)ccc12

$$$$
CHEMBL481185
  SciTegic08162514323D

 58 60  0  0  1  0            999 V2000
    0.0860    4.6250   -8.8380 F   0  0
    0.1740    4.1580   -7.5940 C   0  0
   -0.9960    3.9080   -6.8540 C   0  0
    1.4340    3.9140   -7.0220 C   0  0
   -0.9060    3.4140   -5.5410 C   0  0
    1.5250    3.4220   -5.7070 C   0  0
    0.3550    3.1700   -4.9650 C   0  0
    0.4450    2.6940   -3.6950 N   0  0
   -0.1740    3.2400   -2.6450 N   0  0
    1.1560    1.6110   -3.2910 C   0  0
    0.0900    2.5650   -1.5120 C   0  0
    1.9880    0.7090   -4.1090 N   0  0
    0.9430    1.5100   -1.8950 C   0  0
    1.5020    0.5000   -1.0020 C   0  0
    2.2320   -0.3570   -1.4390 O   0  0
    1.1910    0.5310    0.3280 N   0  0
    1.7560   -0.4880    1.2250 C   0  0
    1.7460   -0.0080    2.6760 C   0  0  1  0  0  0
    2.3550   -0.9980    3.4730 O   0  0
    2.5120    1.3010    2.8690 C   0  0
    0.3320    0.2310    3.2090 C   0  0
    2.6820    1.5370    4.2090 F   0  0
    1.8030    2.3340    2.3110 F   0  0
    3.7380    1.2070    2.2640 F   0  0
   -0.4400   -1.0190    3.2320 N   0  0
   -1.2030   -1.3570    2.1520 C   0  0
   -0.3690   -1.8770    4.4260 C   0  0
   -1.3070   -0.5990    1.2170 O   0  0
   -1.9020   -2.6780    2.1520 C   0  0
   -1.6720   -1.8140    5.2230 C   0  0
   -3.3090   -2.7300    2.1520 C   0  0
   -1.1560   -3.8710    2.1520 C   0  0
   -3.9650   -3.9730    2.1520 C   0  0
   -1.8150   -5.1110    2.1520 C   0  0
   -3.2190   -5.1640    2.1520 C   0  0
   -1.9650    4.0940   -7.2910 H   0  0
    2.3340    4.1040   -7.5860 H   0  0
   -1.8150    3.2290   -4.9860 H   0  0
    2.5040    3.2400   -5.2830 H   0  0
   -0.2970    2.8170   -0.5330 H   0  0
    2.4900   -0.0580   -3.7070 H   0  0
    2.0640    0.8540   -5.0960 H   0  0
    0.5860    1.2420    0.6880 H   0  0
    1.1870   -1.4120    1.1190 H   0  0
    2.7710   -0.7240    0.9040 H   0  0
    2.0210   -1.8550    3.1680 H   0  0
    0.3650    0.6520    4.2130 H   0  0
   -0.1920    0.9630    2.5940 H   0  0
   -0.1520   -2.9000    4.1190 H   0  0
    0.4750   -1.5640    5.0410 H   0  0
   -1.6580   -2.5350    6.0390 H   0  0
   -1.8260   -0.8160    5.6310 H   0  0
   -2.5260   -2.0490    4.5860 H   0  0
   -3.8910   -1.8200    2.1520 H   0  0
   -0.0760   -3.8420    2.1520 H   0  0
   -5.0450   -4.0120    2.1520 H   0  0
   -1.2420   -6.0270    2.1520 H   0  0
   -3.7250   -6.1170    2.1520 H   0  0
  1  2  1  0
  2  3  2  0
  2  4  1  0
  3  5  1  0
  4  6  2  0
  5  7  2  0
  7  8  1  0
  8  9  1  0
  8 10  1  0
  9 11  2  0
 10 12  1  0
 10 13  2  0
 13 14  1  0
 14 15  2  0
 14 16  1  0
 16 17  1  0
 17 18  1  0
 18 19  1  0
 18 20  1  0
 18 21  1  0
 20 22  1  0
 20 23  1  0
 20 24  1  0
 21 25  1  0
 25 26  1  0
 25 27  1  0
 26 28  2  0
 26 29  1  0
 27 30  1  0
 29 31  2  0
 29 32  1  0
 31 33  1  0
 32 34  2  0
 33 35  2  0
  6  7  1  0
 11 13  1  0
 34 35  1  0
  3 36  1  0
  4 37  1  0
  5 38  1  0
  6 39  1  0
 11 40  1  0
 12 41  1  0
 12 42  1  0
 16 43  1  0
 17 44  1  0
 17 45  1  0
 19 46  1  0
 21 47  1  0
 21 48  1  0
 27 49  1  0
 27 50  1  0
 30 51  1  0
 30 52  1  0
 30 53  1  0
 31 54  1  0
 32 55  1  0
 33 56  1  0
 34 57  1  0
 35 58  1  0
M  END
> <Name>
CHEMBL481185

> <IC50 nM>
125.89

> <Molecule_ChEMBL_ID>
CHEMBL481185

> <Smiles>
CCN(CC(O)(CNC(=O)c1cnn(-c2ccc(F)cc2)c1N)C(F)(F)F)C(=O)c1ccccc1

$$$$
CHEMBL3581693
  SciTegic08162514323D

 52 55  0  0  0  0            999 V2000
   -0.9160   -1.2560    4.1470 Cl  0  0
   -2.0370   -1.0040    2.8650 C   0  0
   -1.8100   -0.0310    1.8650 C   0  0
   -3.2050   -1.7910    2.8200 C   0  0
   -0.5840    0.8260    1.8750 C   0  0
   -2.7520    0.1430    0.8340 C   0  0
   -4.1410   -1.6110    1.7890 C   0  0
    0.3110    0.6840    0.8830 C   0  0
   -0.3070    1.8420    2.9510 C   0  0
   -3.9140   -0.6470    0.7950 C   0  0
   -5.2420   -2.3570    1.7520 F   0  0
    1.5610    1.4630    0.7700 C   0  0
    0.0410   -0.3240   -0.1860 C   0  0
   -1.2930    3.0100    2.9140 C   0  0
    2.8130    0.7870    0.7400 C   0  0
    1.5040    2.8810    0.6930 C   0  0
   -0.2110   -1.6660    0.1560 C   0  0
    0.0370    0.0660   -1.5370 C   0  0
    4.0040    1.5490    0.6330 C   0  0
    2.6990    3.6350    0.5860 C   0  0
   -0.4650   -2.6130   -0.8500 C   0  0
   -0.2170   -0.8830   -2.5450 C   0  0
    3.9220    2.9260    0.5590 C   0  0
    5.2620    0.9690    0.5960 C   0  0
   -0.4690   -2.2230   -2.2010 C   0  0
    5.2230    3.2870    0.4690 N   0  0
    5.9850    2.1410    0.4920 N   0  0
   -0.7380   -3.2310   -3.2720 C   0  0
   -0.7340   -2.8280   -4.5530 C   0  0
   -0.9940   -3.7810   -5.6370 C   0  0
   -1.2150   -4.9430   -5.3910 O   0  0
   -0.9670   -3.2770   -6.8670 O   0  0
   -3.3910   -2.5390    3.5800 H   0  0
   -2.5880    0.8830    0.0640 H   0  0
   -0.4200    1.3830    3.9320 H   0  0
    0.7190    2.1990    2.8670 H   0  0
   -4.6290   -0.5060   -0.0020 H   0  0
   -1.0530    3.7400    3.6890 H   0  0
   -1.2690    3.5040    1.9430 H   0  0
   -2.3100    2.6620    3.0880 H   0  0
    2.8520   -0.2910    0.7990 H   0  0
    0.5530    3.3930    0.7150 H   0  0
   -0.2110   -1.9750    1.1910 H   0  0
    0.2310    1.0940   -1.8110 H   0  0
    2.6760    4.7130    0.5270 H   0  0
   -0.6560   -3.6410   -0.5780 H   0  0
   -0.2170   -0.5720   -3.5800 H   0  0
    5.6130   -0.0530    0.6350 H   0  0
    5.5670    4.2170    0.3980 H   0  0
   -0.9410   -4.2790   -3.1170 H   0  0
   -0.5470   -1.8110   -4.8650 H   0  0
   -1.1310   -3.8590   -7.6210 H   0  0
  1  2  1  0
  2  3  2  0
  2  4  1  0
  3  5  1  0
  3  6  1  0
  4  7  2  0
  5  8  2  0
  5  9  1  0
  6 10  2  0
  7 11  1  0
  8 12  1  0
  8 13  1  0
  9 14  1  0
 12 15  2  0
 12 16  1  0
 13 17  2  0
 13 18  1  0
 15 19  1  0
 16 20  2  0
 17 21  1  0
 18 22  2  0
 19 23  2  0
 19 24  1  0
 21 25  2  0
 23 26  1  0
 24 27  2  0
 25 28  1  0
 28 29  2  0
 29 30  1  0
 30 31  2  0
 30 32  1  0
  7 10  1  0
 20 23  1  0
 22 25  1  0
 26 27  1  0
  4 33  1  0
  6 34  1  0
  9 35  1  0
  9 36  1  0
 10 37  1  0
 14 38  1  0
 14 39  1  0
 14 40  1  0
 15 41  1  0
 16 42  1  0
 17 43  1  0
 18 44  1  0
 20 45  1  0
 21 46  1  0
 22 47  1  0
 24 48  1  0
 26 49  1  0
 28 50  1  0
 29 51  1  0
 32 52  1  0
M  END
> <Name>
CHEMBL3581693

> <IC50 nM>
990

> <Molecule_ChEMBL_ID>
CHEMBL3581693

> <Smiles>
CC/C(=C(/c1ccc(/C=C/C(=O)O)cc1)c1ccc2[nH]ncc2c1)c1ccc(F)cc1Cl

$$$$
CHEMBL3605919
  SciTegic08162514323D

 68 71  0  0  0  0            999 V2000
   -1.8790    4.4450   -1.9040 S   0  0
   -1.3030    3.3870   -2.7190 O   0  0
   -2.9750    5.1390   -2.5590 O   0  0
   -2.4670    3.7620   -0.5610 N   0  0
   -0.5980    5.6310   -1.5120 C   0  0
   -2.5720    2.4240   -0.4790 C   0  0
   -1.3300    1.7310   -0.4300 C   0  0
   -3.7890    1.6970   -0.4380 C   0  0
   -0.0040    2.1430   -0.4470 N   0  0
   -1.3010    0.3590   -0.3460 C   0  0
   -3.7500    0.2810   -0.3520 C   0  0
    0.7930    0.9770   -0.3730 C   0  0
   -0.0430   -0.1600   -0.3070 C   0  0
   -2.5020   -0.3980   -0.3050 C   0  0
   -5.0040   -0.4880   -0.3090 C   0  0
    2.3070    1.0250   -0.3690 C   0  0
    0.3770   -1.5800   -0.2170 C   0  0
   -5.8300   -0.1480    0.9320 C   0  0
   -5.7990   -0.3380   -1.6080 C   0  0
    2.8400    0.9960    0.9820 N   0  0
   -0.0510   -2.3910    0.8550 C   0  0
    1.2130   -2.1190   -1.2150 C   0  0
    4.2640    0.7150    0.9610 C   0  0
    2.5780    2.2520    1.6620 C   0  0
   -0.8340   -1.9100    1.8010 O   0  0
    0.3610   -3.7340    0.9180 C   0  0
    1.6210   -3.4610   -1.1450 C   0  0
    4.5410   -0.6850    0.5530 C   0  0
   -1.2090   -2.7770    2.8610 C   0  0
    1.1950   -4.2700   -0.0780 C   0  0
    4.0980   -1.7540    1.3530 C   0  0
    5.2460   -0.9470   -0.6370 C   0  0
    1.5820   -5.5410   -0.0120 F   0  0
    4.3590   -3.0800    0.9670 C   0  0
    5.5080   -2.2730   -1.0240 C   0  0
    5.0650   -3.3400   -0.2230 C   0  0
   -2.7520    4.3340    0.2090 H   0  0
    0.3030    5.1930   -1.0800 H   0  0
   -0.9860    6.3610   -0.8030 H   0  0
   -0.3090    6.1660   -2.4160 H   0  0
   -4.7400    2.2130   -0.4750 H   0  0
    0.3300    3.0760   -0.5040 H   0  0
   -2.4800   -1.4770   -0.2380 H   0  0
   -4.5820   -1.4880   -0.2290 H   0  0
    2.6410    1.9340   -0.8710 H   0  0
    2.6990    0.1800   -0.9340 H   0  0
   -6.7190   -0.7730    1.0120 H   0  0
   -6.1560    0.8910    0.9060 H   0  0
   -5.2400   -0.2910    1.8380 H   0  0
   -5.2010   -0.5940   -2.4810 H   0  0
   -6.1470    0.6880   -1.7290 H   0  0
   -6.6740   -0.9880   -1.6000 H   0  0
    1.5490   -1.5100   -2.0410 H   0  0
    4.6860    0.8950    1.9490 H   0  0
    4.7580    1.4000    0.2710 H   0  0
    2.9690    3.1310    1.1460 H   0  0
    3.0200    2.2270    2.6580 H   0  0
    1.5020    2.3870    1.7770 H   0  0
    0.0330   -4.3570    1.7380 H   0  0
    2.2620   -3.8670   -1.9140 H   0  0
   -1.8070   -3.5880    2.4430 H   0  0
   -0.3070   -3.0700    3.3980 H   0  0
   -1.8400   -2.2190    3.5530 H   0  0
    3.5550   -1.5610    2.2670 H   0  0
    5.5900   -0.1330   -1.2560 H   0  0
    4.0180   -3.8980    1.5820 H   0  0
    6.0510   -2.4730   -1.9360 H   0  0
    5.2660   -4.3570   -0.5200 H   0  0
  1  2  2  0
  1  3  2  0
  1  4  1  0
  1  5  1  0
  4  6  1  0
  6  7  2  0
  6  8  1  0
  7  9  1  0
  7 10  1  0
  8 11  2  0
  9 12  1  0
 10 13  1  0
 10 14  2  0
 11 15  1  0
 12 16  1  0
 13 17  1  0
 15 18  1  0
 15 19  1  0
 16 20  1  0
 17 21  2  0
 17 22  1  0
 20 23  1  0
 20 24  1  0
 21 25  1  0
 21 26  1  0
 22 27  2  0
 23 28  1  0
 25 29  1  0
 26 30  2  0
 28 31  2  0
 28 32  1  0
 30 33  1  0
 31 34  1  0
 32 35  2  0
 34 36  2  0
 11 14  1  0
 12 13  2  0
 27 30  1  0
 35 36  1  0
  4 37  1  0
  5 38  1  0
  5 39  1  0
  5 40  1  0
  8 41  1  0
  9 42  1  0
 14 43  1  0
 15 44  1  0
 16 45  1  0
 16 46  1  0
 18 47  1  0
 18 48  1  0
 18 49  1  0
 19 50  1  0
 19 51  1  0
 19 52  1  0
 22 53  1  0
 23 54  1  0
 23 55  1  0
 24 56  1  0
 24 57  1  0
 24 58  1  0
 26 59  1  0
 27 60  1  0
 29 61  1  0
 29 62  1  0
 29 63  1  0
 31 64  1  0
 32 65  1  0
 34 66  1  0
 35 67  1  0
 36 68  1  0
M  END
> <Name>
CHEMBL3605919

> <IC50 nM>
2.76

> <Molecule_ChEMBL_ID>
CHEMBL3605919

> <Smiles>
COc1cc(F)ccc1-c1c(CN(C)Cc2ccccc2)[nH]c2c(NS(C)(=O)=O)cc(C(C)C)cc12

$$$$
CHEMBL3126940
  SciTegic08162514323D

 50 52  0  0  1  0            999 V2000
    5.4670    0.4200    3.2750 F   0  0
    4.8460    0.3500    2.1020 C   0  0
    3.5900   -0.2750    2.0060 C   0  0
    5.4450    0.8980    0.9550 C   0  0
    2.9320   -0.3500    0.7640 C   0  0
    4.7890    0.8220   -0.2850 C   0  0
    3.5310    0.1990   -0.3870 C   0  0
    1.6040   -1.0140    0.6740 C   0  0
    2.9260    0.1350   -1.5550 O   0  0
    0.8180    0.2890    0.8320 C   0  0
    1.3790   -1.9820    1.8340 C   0  0
    1.3930   -1.6680   -0.6910 C   0  0
    3.5120    0.8240   -2.6480 C   0  0
   -0.6890    0.0940    0.6600 C   0  0  1  0  0  0
   -0.9840   -1.2680    0.8790 O   0  0
   -1.3630    0.9120    1.7620 C   0  0
   -1.1780    0.4710   -0.7380 C   0  0
   -2.7110    0.6560    1.7620 F   0  0
   -1.1520    2.2460    1.5330 F   0  0
   -0.8320    0.5660    2.9790 F   0  0
   -2.6890    0.4490   -0.8160 C   0  0
   -3.4470   -0.7170   -0.9450 N   0  0
   -3.5900    1.5200   -0.7770 C   0  0
   -4.7640   -0.3070   -0.9800 C   0  0
   -4.8770    1.0780   -0.8770 C   0  0
   -5.9770   -1.0200   -1.0980 C   0  0
   -6.0900    1.7500   -0.8850 N   0  0
   -7.2210   -0.4140   -1.1110 N   0  0
   -7.2460    0.9780   -1.0040 C   0  0
    3.1290   -0.6970    2.8870 H   0  0
    6.4100    1.3790    1.0230 H   0  0
    5.2520    1.2460   -1.1640 H   0  0
    1.1880    1.0490    0.1450 H   0  0
    1.0390    0.7580    1.7910 H   0  0
    2.3010   -2.4840    2.1290 H   0  0
    0.6520   -2.7480    1.5630 H   0  0
    0.9940   -1.4550    2.7090 H   0  0
    2.3070   -2.1250   -1.0680 H   0  0
    1.0610   -0.9320   -1.4240 H   0  0
    0.6310   -2.4450   -0.6310 H   0  0
    3.5720    1.8810   -2.3950 H   0  0
    4.4530    0.3320   -2.8970 H   0  0
    2.8500    0.7270   -3.5100 H   0  0
   -1.1350   -1.6700    0.0080 H   0  0
   -0.7660   -0.2050   -1.4860 H   0  0
   -0.8140    1.4590   -1.0200 H   0  0
   -3.1070   -1.6500   -1.0020 H   0  0
   -3.2990    2.5570   -0.6820 H   0  0
   -5.9360   -2.0960   -1.1820 H   0  0
   -8.2030    1.4780   -1.0120 H   0  0
  1  2  1  0
  2  3  2  0
  2  4  1  0
  3  5  1  0
  4  6  2  0
  5  7  2  0
  5  8  1  0
  7  9  1  0
  8 10  1  0
  8 11  1  0
  8 12  1  0
  9 13  1  0
 10 14  1  0
 14 15  1  0
 14 16  1  0
 14 17  1  0
 16 18  1  0
 16 19  1  0
 16 20  1  0
 17 21  1  0
 21 22  1  0
 21 23  2  0
 22 24  1  0
 23 25  1  0
 24 26  1  0
 25 27  1  0
 26 28  2  0
 27 29  2  0
  6  7  1  0
 24 25  2  0
 28 29  1  0
  3 30  1  0
  4 31  1  0
  6 32  1  0
 10 33  1  0
 10 34  1  0
 11 35  1  0
 11 36  1  0
 11 37  1  0
 12 38  1  0
 12 39  1  0
 12 40  1  0
 13 41  1  0
 13 42  1  0
 13 43  1  0
 15 44  1  0
 17 45  1  0
 17 46  1  0
 22 47  1  0
 23 48  1  0
 26 49  1  0
 29 50  1  0
M  END
> <Name>
CHEMBL3126940

> <IC50 nM>
9

> <Molecule_ChEMBL_ID>
CHEMBL3126940

> <Smiles>
COc1ccc(F)cc1C(C)(C)CC(O)(Cc1cc2ncncc2[nH]1)C(F)(F)F

$$$$
CHEMBL3126955
  SciTegic08162514323D

 49 51  0  0  1  0            999 V2000
    6.1960   -0.1370    2.1910 F   0  0
    5.3260   -0.2400    1.1890 C   0  0
    3.9850   -0.5660    1.4530 C   0  0
    5.7480   -0.0220   -0.1330 C   0  0
    3.0630   -0.6760    0.3940 C   0  0
    4.8300   -0.1310   -1.1920 C   0  0
    3.4880   -0.4570   -0.9300 C   0  0
    1.6470   -1.0220    0.6930 C   0  0
    2.5290   -0.5660   -2.0630 C   0  0
    1.1510    0.4180    0.5700 C   0  0
    1.4880   -1.5820    2.1070 C   0  0
    1.0570   -1.9430   -0.3750 C   0  0
   -0.3750    0.5190    0.5720 C   0  0  1  0  0  0
   -0.8980   -0.7250    0.9800 O   0  0
   -0.7420    1.5620    1.6270 C   0  0
   -0.9470    0.8480   -0.8090 C   0  0
   -2.1050    1.6230    1.7540 F   0  0
   -0.2660    2.7890    1.2400 F   0  0
   -0.1850    1.2130    2.8280 F   0  0
   -2.4570    0.7520   -0.8130 C   0  0
   -3.3120    1.8590   -0.7890 N   0  0
   -3.2680   -0.3870   -0.8420 C   0  0
   -4.6020    1.3530   -0.8010 C   0  0
   -4.5800   -0.0230   -0.8340 C   0  0
   -5.6840    2.1930   -0.7810 N   0  0
   -5.7790   -0.7110   -0.8500 N   0  0
   -6.8960    1.5000   -0.7990 C   0  0
   -6.9510    0.0610   -0.8320 C   0  0
    3.6620   -0.7340    2.4710 H   0  0
    6.7800    0.2300   -0.3400 H   0  0
    5.1620    0.0390   -2.2050 H   0  0
    2.3540   -1.6190   -2.2890 H   0  0
    1.6130   -0.0310   -1.8170 H   0  0
    2.9590   -0.1020   -2.9490 H   0  0
    1.5670    0.8950   -0.3180 H   0  0
    1.5780    1.0430    1.3530 H   0  0
    2.3150   -2.2400    2.3770 H   0  0
    0.5650   -2.1520    2.1950 H   0  0
    1.4530   -0.7750    2.8380 H   0  0
    0.2910   -2.6020    0.0330 H   0  0
    1.8320   -2.5680   -0.8160 H   0  0
    0.6020   -1.3610   -1.1780 H   0  0
   -1.3420   -0.5820    1.8320 H   0  0
   -0.5370    0.1780   -1.5650 H   0  0
   -0.6440    1.8480   -1.1210 H   0  0
   -3.0370    2.8140   -0.7660 H   0  0
   -2.9020   -1.4060   -0.8650 H   0  0
   -7.8200    2.0610   -0.7850 H   0  0
   -7.9100   -0.4360   -0.8440 H   0  0
  1  2  1  0
  2  3  2  0
  2  4  1  0
  3  5  1  0
  4  6  2  0
  5  7  2  0
  5  8  1  0
  7  9  1  0
  8 10  1  0
  8 11  1  0
  8 12  1  0
 10 13  1  0
 13 14  1  0
 13 15  1  0
 13 16  1  0
 15 17  1  0
 15 18  1  0
 15 19  1  0
 16 20  1  0
 20 21  1  0
 20 22  2  0
 21 23  1  0
 22 24  1  0
 23 25  1  0
 24 26  1  0
 25 27  2  0
 26 28  2  0
  6  7  1  0
 23 24  2  0
 27 28  1  0
  3 29  1  0
  4 30  1  0
  6 31  1  0
  9 32  1  0
  9 33  1  0
  9 34  1  0
 10 35  1  0
 10 36  1  0
 11 37  1  0
 11 38  1  0
 11 39  1  0
 12 40  1  0
 12 41  1  0
 12 42  1  0
 14 43  1  0
 16 44  1  0
 16 45  1  0
 21 46  1  0
 22 47  1  0
 27 48  1  0
 28 49  1  0
M  END
> <Name>
CHEMBL3126955

> <IC50 nM>
57

> <Molecule_ChEMBL_ID>
CHEMBL3126955

> <Smiles>
Cc1ccc(F)cc1C(C)(C)CC(O)(Cc1cc2nccnc2[nH]1)C(F)(F)F

$$$$
CHEMBL3126954
  SciTegic08162514323D

 50 52  0  0  1  0            999 V2000
    0.8120    2.1210    3.8270 F   0  0
    1.5580    1.6700    2.8210 C   0  0
    1.0360    1.6410    1.5160 C   0  0
    2.8680    1.2240    3.0630 C   0  0
    1.8240    1.1650    0.4520 C   0  0
    3.6550    0.7480    2.0000 C   0  0
    3.1380    0.7170    0.6930 C   0  0
    1.2610    1.1380   -0.9240 C   0  0
    3.8850    0.2680   -0.2960 O   0  0
    1.3240   -0.3850   -1.0420 C   0  0
    2.1800    1.8450   -1.9210 C   0  0
   -0.1700    1.6740   -0.9580 C   0  0
    5.2700    0.0750   -0.0500 C   0  0
   -0.0540   -1.0420   -0.9480 C   0  0  1  0  0  0
   -0.9080   -0.4080   -1.8730 O   0  0
    0.1250   -2.4970   -1.3810 C   0  0
   -0.6750   -0.9130    0.4430 C   0  0
    0.5980   -2.5350   -2.6680 F   0  0
   -1.0810   -3.1450   -1.3180 F   0  0
    1.0210   -3.1150   -0.5470 F   0  0
   -2.1860   -0.8570    0.3660 C   0  0
   -3.0080   -2.0200    0.3660 N   0  0
   -3.0140    0.2810    0.2850 C   0  0
   -4.3240   -1.5860    0.2860 C   0  0
   -4.2570   -0.2320    0.2410 C   0  0
   -5.4010   -2.4390    0.2620 N   0  0
   -5.5300    0.3820    0.1550 C   0  0
   -6.6220   -1.7500    0.1770 C   0  0
   -6.7220   -0.3440    0.1210 N   0  0
    0.0280    1.9840    1.3310 H   0  0
    3.2740    1.2450    4.0640 H   0  0
    4.6620    0.4060    2.1900 H   0  0
    2.0010   -0.8020   -0.2960 H   0  0
    1.8290   -0.6800   -1.9620 H   0  0
    2.3100    2.8990   -1.6770 H   0  0
    1.7720    1.7850   -2.9310 H   0  0
    3.1660    1.3810   -1.9330 H   0  0
   -0.2280    2.7000   -0.5960 H   0  0
   -0.8250    1.0640   -0.3360 H   0  0
   -0.5640    1.6560   -1.9740 H   0  0
    5.7420   -0.2390   -0.9810 H   0  0
    5.6650    0.9820    0.4090 H   0  0
    5.3790   -0.7370    0.6690 H   0  0
   -1.6050   -1.0440   -2.1010 H   0  0
   -0.3040   -0.0210    0.9500 H   0  0
   -0.3740   -1.7460    1.0790 H   0  0
   -2.6920   -2.9620    0.4150 H   0  0
   -2.7170    1.3210    0.2640 H   0  0
   -5.5870    1.4600    0.1130 H   0  0
   -7.5340   -2.3290    0.1520 H   0  0
  1  2  1  0
  2  3  2  0
  2  4  1  0
  3  5  1  0
  4  6  2  0
  5  7  2  0
  5  8  1  0
  7  9  1  0
  8 10  1  0
  8 11  1  0
  8 12  1  0
  9 13  1  0
 10 14  1  0
 14 15  1  0
 14 16  1  0
 14 17  1  0
 16 18  1  0
 16 19  1  0
 16 20  1  0
 17 21  1  0
 21 22  1  0
 21 23  2  0
 22 24  1  0
 23 25  1  0
 24 26  1  0
 25 27  1  0
 26 28  2  0
 27 29  2  0
  6  7  1  0
 24 25  2  0
 28 29  1  0
  3 30  1  0
  4 31  1  0
  6 32  1  0
 10 33  1  0
 10 34  1  0
 11 35  1  0
 11 36  1  0
 11 37  1  0
 12 38  1  0
 12 39  1  0
 12 40  1  0
 13 41  1  0
 13 42  1  0
 13 43  1  0
 15 44  1  0
 17 45  1  0
 17 46  1  0
 22 47  1  0
 23 48  1  0
 27 49  1  0
 28 50  1  0
M  END
> <Name>
CHEMBL3126954

> <IC50 nM>
4

> <Molecule_ChEMBL_ID>
CHEMBL3126954

> <Smiles>
COc1ccc(F)cc1C(C)(C)CC(O)(Cc1cc2cncnc2[nH]1)C(F)(F)F

$$$$
CHEMBL3126950
  SciTegic08162514323D

 49 51  0  0  1  0            999 V2000
   -6.2380    0.6620    1.9410 F   0  0
   -5.3180    0.6720    0.9800 C   0  0
   -3.9730    0.9320    1.2950 C   0  0
   -5.6910    0.4200   -0.3520 C   0  0
   -2.9980    0.9430    0.2790 C   0  0
   -4.7190    0.4300   -1.3670 C   0  0
   -3.3730    0.6910   -1.0550 C   0  0
   -1.5800    1.2210    0.6330 C   0  0
   -2.3570    0.6970   -2.1430 C   0  0
   -1.1600   -0.2480    0.5800 C   0  0
   -1.4550    1.8220    2.0330 C   0  0
   -0.8910    2.0700   -0.4380 C   0  0
    0.3570   -0.4300    0.6170 C   0  0  1  0  0  0
    0.9390    0.8010    0.9800 O   0  0
    0.6460   -1.4410    1.7270 C   0  0
    0.9340   -0.8530   -0.7320 C   0  0
    2.0020   -1.5980    1.8590 F   0  0
    0.0760   -2.6460    1.4080 F   0  0
    0.1210   -0.9860    2.9100 F   0  0
    2.4470   -0.8940   -0.6930 C   0  0
    3.1950   -2.0720   -0.6460 N   0  0
    3.3570    0.1660   -0.6990 C   0  0
    4.5200   -1.6820   -0.6230 C   0  0
    4.6430   -0.2950   -0.6540 C   0  0
    5.7050   -2.4590   -0.5740 C   0  0
    5.8560    0.3670   -0.6430 N   0  0
    6.9450   -1.7560   -0.5630 C   0  0
    6.9860   -0.3630   -0.5960 N   0  0
   -3.6900    1.1250    2.3200 H   0  0
   -6.7230    0.2190   -0.6000 H   0  0
   -5.0140    0.2360   -2.3890 H   0  0
   -2.1170    1.7270   -2.4080 H   0  0
   -1.4840    0.1290   -1.8280 H   0  0
   -2.7700    0.2130   -3.0270 H   0  0
   -1.5860   -0.7380   -0.2950 H   0  0
   -1.6370   -0.8120    1.3810 H   0  0
   -2.1720    2.6270    2.1950 H   0  0
   -0.4550    2.2270    2.1890 H   0  0
   -1.6290    1.0610    2.7950 H   0  0
   -0.1250    2.7190   -0.0100 H   0  0
   -1.6130    2.7030   -0.9510 H   0  0
   -0.4120    1.4360   -1.1840 H   0  0
    1.8240    0.6080    1.3280 H   0  0
    0.6090   -0.1760   -1.5220 H   0  0
    0.5530   -1.8320   -1.0250 H   0  0
    2.8440   -3.0020   -0.6310 H   0  0
    3.0780    1.2110   -0.7320 H   0  0
    5.6720   -3.5390   -0.5490 H   0  0
    7.8690   -2.3120   -0.5250 H   0  0
  1  2  1  0
  2  3  2  0
  2  4  1  0
  3  5  1  0
  4  6  2  0
  5  7  2  0
  5  8  1  0
  7  9  1  0
  8 10  1  0
  8 11  1  0
  8 12  1  0
 10 13  1  0
 13 14  1  0
 13 15  1  0
 13 16  1  0
 15 17  1  0
 15 18  1  0
 15 19  1  0
 16 20  1  0
 20 21  1  0
 20 22  2  0
 21 23  1  0
 22 24  1  0
 23 25  1  0
 24 26  1  0
 25 27  2  0
 26 28  2  0
  6  7  1  0
 23 24  2  0
 27 28  1  0
  3 29  1  0
  4 30  1  0
  6 31  1  0
  9 32  1  0
  9 33  1  0
  9 34  1  0
 10 35  1  0
 10 36  1  0
 11 37  1  0
 11 38  1  0
 11 39  1  0
 12 40  1  0
 12 41  1  0
 12 42  1  0
 14 43  1  0
 16 44  1  0
 16 45  1  0
 21 46  1  0
 22 47  1  0
 25 48  1  0
 27 49  1  0
M  END
> <Name>
CHEMBL3126950

> <IC50 nM>
7

> <Molecule_ChEMBL_ID>
CHEMBL3126950

> <Smiles>
Cc1ccc(F)cc1C(C)(C)CC(O)(Cc1cc2nnccc2[nH]1)C(F)(F)F

$$$$
CHEMBL3907432
  SciTegic08162514323D

 59 62  0  0  1  0            999 V2000
   -3.7250   -0.4090    8.8330 F   0  0
   -2.6920   -0.4210    7.9930 C   0  0
   -1.4250    0.0010    8.4310 C   0  0
   -2.8680   -0.8570    6.6680 C   0  0
   -0.3340   -0.0110    7.5460 C   0  0
   -1.7780   -0.8700    5.7810 C   0  0
   -0.5070   -0.4470    6.2180 C   0  0
    0.5470   -0.4600    5.3610 N   0  0
    1.8260   -0.8670    5.6740 N   0  0
    0.5420   -0.0820    4.0580 C   0  0
    2.7320   -0.7900    4.6370 C   0  0
    1.8550   -0.2980    3.6840 C   0  0
   -0.4410    0.4180    3.1720 C   0  0
    2.2550   -0.0130    2.3530 C   0  0
   -0.0470    0.7050    1.8420 C   0  0
    1.2970    0.4900    1.4320 C   0  0
    1.6620    0.7640    0.1720 O   0  0
    0.6550    0.7620   -0.8290 C   0  0  2  0  0  0
   -0.0410   -0.5520   -0.8290 C   0  0
    1.2870    1.0640   -2.1880 C   0  0  1  0  0  0
   -1.4460   -0.6040   -0.8290 C   0  0
    0.7060   -1.7440   -0.8290 C   0  0
    0.2670    1.1120   -3.2450 N   0  0
    2.1260    2.3420   -2.1780 C   0  0
   -2.1040   -1.8460   -0.8290 C   0  0
    0.0470   -2.9860   -0.8290 C   0  0
    0.6450    0.9680   -4.5500 C   0  0
   -1.3580   -3.0370   -0.8290 C   0  0
    1.8110    0.8300   -4.8360 O   0  0
   -0.4170    0.9850   -5.6160 C   0  0
    0.1590    0.7730   -7.0170 C   0  0
   -0.9050    0.8100   -7.9410 O   0  0
   -0.4880    0.6230   -9.2750 C   0  0
   -1.2860    0.3370    9.4490 H   0  0
   -3.8400   -1.1820    6.3280 H   0  0
    0.6330    0.3170    7.9020 H   0  0
   -1.9330   -1.2090    4.7660 H   0  0
    3.7830   -1.0480    4.6300 H   0  0
   -1.4590    0.5760    3.4960 H   0  0
    3.2740   -0.1720    2.0310 H   0  0
   -0.7720    1.0880    1.1390 H   0  0
   -0.0590    1.5510   -0.5970 H   0  0
    1.8800    0.2170   -2.5340 H   0  0
   -2.0260    0.3080   -0.8290 H   0  0
    1.7850   -1.7120   -0.8290 H   0  0
   -0.6980    1.2480   -3.0190 H   0  0
    2.6000    2.5250   -3.1430 H   0  0
    2.9130    2.2800   -1.4270 H   0  0
    1.5070    3.2070   -1.9410 H   0  0
   -3.1830   -1.8850   -0.8290 H   0  0
    0.6210   -3.9010   -0.8290 H   0  0
   -1.8630   -3.9910   -0.8290 H   0  0
   -1.1190    0.1670   -5.4530 H   0  0
   -0.9770    1.9190   -5.5670 H   0  0
    0.8570    1.5710   -7.2710 H   0  0
    0.6410   -0.2010   -7.0920 H   0  0
   -1.3760    0.5950   -9.9070 H   0  0
    0.2530    1.3880   -9.5090 H   0  0
    0.0020   -0.3480   -9.3440 H   0  0
  1  2  1  0
  2  3  2  0
  2  4  1  0
  3  5  1  0
  4  6  2  0
  5  7  2  0
  7  8  1  0
  8  9  1  0
  8 10  1  0
  9 11  2  0
 10 12  1  0
 10 13  2  0
 12 14  2  0
 13 15  1  0
 14 16  1  0
 16 17  1  0
 18 17  1  0
 18 19  1  0
 18 20  1  0
 19 21  2  0
 19 22  1  0
 20 23  1  0
 20 24  1  0
 21 25  1  0
 22 26  2  0
 23 27  1  0
 25 28  2  0
 27 29  2  0
 27 30  1  0
 30 31  1  0
 31 32  1  0
 32 33  1  0
  6  7  1  0
 11 12  1  0
 15 16  2  0
 26 28  1  0
  3 34  1  0
  4 35  1  0
  5 36  1  0
  6 37  1  0
 11 38  1  0
 13 39  1  0
 14 40  1  0
 15 41  1  0
 18 42  1  0
 20 43  1  0
 21 44  1  0
 22 45  1  0
 23 46  1  0
 24 47  1  0
 24 48  1  0
 24 49  1  0
 25 50  1  0
 26 51  1  0
 28 52  1  0
 30 53  1  0
 30 54  1  0
 31 55  1  0
 31 56  1  0
 33 57  1  0
 33 58  1  0
 33 59  1  0
M  END
> <Name>
CHEMBL3907432

> <IC50 nM>
5.09

> <Molecule_ChEMBL_ID>
CHEMBL3907432

> <Smiles>
COCCC(=O)N[C@@H](C)[C@H](Oc1ccc2c(cnn2-c2ccc(F)cc2)c1)c1ccccc1

$$$$
CHEMBL3967290
  SciTegic08162514323D

 55 59  0  0  1  0            999 V2000
    6.6480    5.8610   -1.4940 F   0  0
    6.1600    4.6270   -1.3980 C   0  0
    6.6820    3.6000   -2.2050 C   0  0
    5.1230    4.3480   -0.4920 C   0  0
    6.1680    2.2950   -2.1060 C   0  0
    4.6070    3.0450   -0.3910 C   0  0
    5.1290    2.0140   -1.1970 C   0  0
    4.6310    0.7540   -1.1000 N   0  0
    5.3810   -0.4020   -1.0760 N   0  0
    3.3240    0.3980   -1.0100 C   0  0
    4.6500   -1.5680   -0.9710 C   0  0
    3.3980   -0.9780   -0.9360 C   0  0
    2.1010    1.1090   -0.9820 C   0  0
    2.2010   -1.7340   -0.8280 C   0  0
    0.9020    0.3590   -0.8750 C   0  0
    0.9530   -1.0590   -0.7990 C   0  0
   -0.1860   -1.7600   -0.6950 O   0  0
   -1.3810   -1.0550   -0.4060 C   0  0  2  0  0  0
   -1.2580   -0.3930    0.9200 C   0  0
   -2.5670   -2.0200   -0.4430 C   0  0  1  0  0  0
   -1.7540    0.9120    1.1150 C   0  0
   -0.6430   -1.0620    1.9920 C   0  0
   -3.8300   -1.3140   -0.1840 N   0  0
   -2.6410   -2.8110   -1.7500 C   0  0
   -1.6520    1.5370    2.3240 N   0  0
   -0.5410   -0.4080    3.2320 C   0  0
   -4.8420   -1.9690    0.4590 C   0  0
   -1.0570    0.8950    3.3710 C   0  0
   -4.7010   -3.1170    0.8090 O   0  0
   -6.1330   -1.2150    0.7130 C   0  0
   -7.0960   -1.7270    1.7640 C   0  0
   -6.3070   -0.4610    2.0160 C   0  0
    7.4790    3.8090   -2.9020 H   0  0
    4.7190    5.1350    0.1290 H   0  0
    6.5820    1.5200   -2.7340 H   0  0
    3.8090    2.8500    0.3120 H   0  0
    5.0020   -2.5900   -0.9340 H   0  0
    2.0760    2.1880   -1.0430 H   0  0
    2.2280   -2.8130   -0.7680 H   0  0
   -0.0490    0.8690   -0.8540 H   0  0
   -1.5270   -0.2970   -1.1760 H   0  0
   -2.4400   -2.8140    0.2910 H   0  0
   -2.2290    1.4320    0.2950 H   0  0
   -0.2520   -2.0620    1.8710 H   0  0
   -3.9470   -0.3650   -0.4730 H   0  0
   -3.4670   -3.5200   -1.7250 H   0  0
   -2.7720   -2.1410   -2.6000 H   0  0
   -1.7210   -3.3770   -1.9100 H   0  0
   -0.0740   -0.9020    4.0720 H   0  0
   -0.9790    1.3980    4.3240 H   0  0
   -6.5820   -0.7600   -0.1700 H   0  0
   -8.1620   -1.6270    1.5620 H   0  0
   -6.8190   -2.6190    2.3260 H   0  0
   -6.8460    0.4860    1.9820 H   0  0
   -5.5000   -0.5020    2.7460 H   0  0
  1  2  1  0
  2  3  2  0
  2  4  1  0
  3  5  1  0
  4  6  2  0
  5  7  2  0
  7  8  1  0
  8  9  1  0
  8 10  1  0
  9 11  2  0
 10 12  1  0
 10 13  2  0
 12 14  2  0
 13 15  1  0
 14 16  1  0
 16 17  1  0
 18 17  1  0
 18 19  1  0
 18 20  1  0
 19 21  2  0
 19 22  1  0
 20 23  1  0
 20 24  1  0
 21 25  1  0
 22 26  2  0
 23 27  1  0
 25 28  2  0
 27 29  2  0
 27 30  1  0
 30 31  1  0
 30 32  1  0
  6  7  1  0
 11 12  1  0
 15 16  2  0
 26 28  1  0
 31 32  1  0
  3 33  1  0
  4 34  1  0
  5 35  1  0
  6 36  1  0
 11 37  1  0
 13 38  1  0
 14 39  1  0
 15 40  1  0
 18 41  1  0
 20 42  1  0
 21 43  1  0
 22 44  1  0
 23 45  1  0
 24 46  1  0
 24 47  1  0
 24 48  1  0
 26 49  1  0
 28 50  1  0
 30 51  1  0
 31 52  1  0
 31 53  1  0
 32 54  1  0
 32 55  1  0
M  END
> <Name>
CHEMBL3967290

> <IC50 nM>
8.83

> <Molecule_ChEMBL_ID>
CHEMBL3967290

> <Smiles>
C[C@H](NC(=O)C1CC1)[C@H](Oc1ccc2c(cnn2-c2ccc(F)cc2)c1)c1cccnc1

$$$$
CHEMBL2024020
  SciTegic08162514323D

 75 80  0  0  1  0            999 V2000
   -4.2340   -1.6660    1.4900 S   0  0
   -5.7830   -1.0120    1.3240 C   0  0
   -3.2420   -0.5230    0.6130 C   0  0
   -6.0040    0.1500    0.6290 N   0  0
   -6.8870   -1.6110    1.8770 N   0  0
   -1.8050   -0.9650    0.6620 C   0  0
   -7.3420    0.2850    0.7560 C   0  0
   -7.8710   -0.7700    1.5020 C   0  0
   -6.9690   -2.8480    2.6700 C   0  0
   -1.4000   -1.6700    1.5590 O   0  0
   -0.8790   -0.5040   -0.4410 C   0  0  2  0  0  0
   -8.1800    1.3050    0.2460 C   0  0
   -9.2600   -0.8440    1.7660 C   0  0
   -1.0330   -1.4430   -1.4920 O   0  0
    0.6150   -0.3670   -0.0390 C   0  0  2  0  0  0
   -1.2170    0.9080   -0.9750 C   0  0
   -9.5720    1.2440    0.5040 C   0  0
  -10.1090    0.1720    1.2620 C   0  0
    1.1970    0.6050   -1.0880 C   0  0  1  0  0  0
    1.4920   -1.6370   -0.0350 C   0  0
    0.6110    0.2930    1.3540 C   0  0
    0.1040    1.6800   -1.1050 C   0  0
    2.6110    1.0760   -0.6700 C   0  0  1  0  0  0
    1.2110    0.0060   -2.5040 C   0  0
    2.9790   -1.3200    0.2680 C   0  0  1  0  0  0
    3.5630   -0.1470   -0.5780 C   0  0  2  0  0  0
    3.1410    2.1020   -1.6890 C   0  0
    3.1150   -1.0820    1.6560 O   0  0
    5.0390    0.2540   -0.2380 C   0  0  2  0  0  0
    4.5590    2.5620   -1.3550 C   0  0
    5.5140    1.4100   -1.1170 C   0  0
    5.9450   -0.9920   -0.4140 C   0  0
    5.1720    0.7870    1.1950 C   0  0
    6.7500    1.4410   -1.6580 C   0  0
    7.4440   -0.6700   -0.4000 C   0  0
    7.7680    0.4100   -1.4000 C   0  0
    8.8300    0.4340   -1.9770 O   0  0
   -3.3400    0.4650    1.0630 H   0  0
   -3.5760   -0.4710   -0.4240 H   0  0
   -5.9790   -3.2990    2.7440 H   0  0
   -7.4060   -2.6270    3.6430 H   0  0
   -7.6210   -3.5610    2.1660 H   0  0
   -7.7700    2.1230   -0.3320 H   0  0
   -9.6700   -1.6580    2.3440 H   0  0
   -1.9490   -1.3730   -1.8070 H   0  0
   -1.8750    1.4410   -0.3030 H   0  0
   -1.7280    0.8770   -1.9280 H   0  0
  -10.2250    2.0140    0.1230 H   0  0
  -11.1720    0.1290    1.4550 H   0  0
    1.4450   -2.1290   -1.0060 H   0  0
    1.0980   -2.3650    0.6760 H   0  0
   -0.1000    1.1190    1.4080 H   0  0
    1.5980    0.6860    1.5960 H   0  0
    0.3400   -0.4300    2.1210 H   0  0
    0.1290    2.2930   -1.9960 H   0  0
    0.2230    2.3520   -0.2660 H   0  0
    2.5670    1.5640    0.3050 H   0  0
    1.6700    0.6820   -3.2270 H   0  0
    0.1970   -0.2050   -2.8440 H   0  0
    1.7700   -0.9300   -2.5210 H   0  0
    3.5550   -2.2250    0.0720 H   0  0
    3.6080   -0.5430   -1.5940 H   0  0
    3.1490    1.6700   -2.6890 H   0  0
    2.4810    2.9690   -1.7340 H   0  0
    3.4060   -1.9140    2.0630 H   0  0
    4.5350    3.1820   -0.4590 H   0  0
    4.9220    3.2050   -2.1580 H   0  0
    5.7360   -1.7310    0.3610 H   0  0
    5.7130   -1.4820   -1.3610 H   0  0
    6.0570    1.4140    1.3150 H   0  0
    5.2480   -0.0350    1.9080 H   0  0
    4.3030    1.3850    1.4670 H   0  0
    7.0200    2.2620   -2.3090 H   0  0
    8.0220   -1.5660   -0.6230 H   0  0
    7.7460   -0.3380    0.5940 H   0  0
  1  2  1  0
  1  3  1  0
  2  4  2  0
  2  5  1  0
  3  6  1  0
  4  7  1  0
  5  8  1  0
  5  9  1  0
  6 10  2  0
  6 11  1  0
  7 12  1  0
  8 13  1  0
 11 14  1  0
 11 15  1  0
 11 16  1  0
 12 17  2  0
 13 18  2  0
 15 19  1  0
 15 20  1  0
 15 21  1  0
 16 22  1  0
 19 23  1  0
 19 24  1  0
 20 25  1  0
 26 23  1  0
 23 27  1  0
 25 28  1  0
 26 29  1  0
 27 30  1  0
 29 31  1  0
 29 32  1  0
 29 33  1  0
 31 34  2  0
 32 35  1  0
 34 36  1  0
 36 37  2  0
  7  8  2  0
 17 18  1  0
 19 22  1  0
 25 26  1  0
 30 31  1  0
 35 36  1  0
  3 38  1  0
  3 39  1  0
  9 40  1  0
  9 41  1  0
  9 42  1  0
 12 43  1  0
 13 44  1  0
 14 45  1  0
 16 46  1  0
 16 47  1  0
 17 48  1  0
 18 49  1  0
 20 50  1  0
 20 51  1  0
 21 52  1  0
 21 53  1  0
 21 54  1  0
 22 55  1  0
 22 56  1  0
 23 57  1  0
 24 58  1  0
 24 59  1  0
 24 60  1  0
 25 61  1  0
 26 62  1  0
 27 63  1  0
 27 64  1  0
 28 65  1  0
 30 66  1  0
 30 67  1  0
 32 68  1  0
 32 69  1  0
 33 70  1  0
 33 71  1  0
 33 72  1  0
 34 73  1  0
 35 74  1  0
 35 75  1  0
M  END
> <Name>
CHEMBL2024020

> <IC50 nM>
8.9

> <Molecule_ChEMBL_ID>
CHEMBL2024020

> <Smiles>
Cn1c(SCC(=O)[C@@]2(O)CC[C@@]3(C)[C@@H]4CCC5=CC(=O)CC[C@]5(C)[C@H]4[C@@H](O)C[C@@]32C)nc2ccccc21

$$$$
CHEMBL4202668
  SciTegic08162514323D

 65 69  0  0  1  0            999 V2000
   -3.5760   -4.7500   -2.4120 F   0  0
   -3.4080   -3.6170   -3.1660 C   0  0
   -4.6110   -3.2440   -3.7050 F   0  0
   -2.8380   -2.5060   -2.3280 C   0  0
   -2.4120   -3.8980   -4.2910 C   0  0
   -1.7720   -2.0060   -2.6000 O   0  0
   -3.5510   -2.0660   -1.2480 N   0  0
   -3.0080   -0.9820   -0.4180 C   0  0  2  0  0  0
   -2.1190   -1.5350    0.6950 C   0  0  2  0  0  0
   -4.1290   -0.0860    0.1130 C   0  0
   -0.9860   -2.1740    0.1250 O   0  0
   -2.8540   -2.5040    1.5530 C   0  0
    0.1480   -1.4690    0.0240 C   0  0
   -2.8750   -3.8670    1.2130 C   0  0
   -3.5250   -2.0550    2.7030 C   0  0
    1.4000   -2.1430   -0.0080 C   0  0
    0.0940   -0.0490   -0.0550 C   0  0
   -3.5700   -4.7830    2.0240 C   0  0
   -4.2210   -2.9710    3.5140 C   0  0
    2.5960   -1.3870   -0.1150 C   0  0
    1.2870    0.7090   -0.1620 C   0  0
   -4.2420   -4.3340    3.1740 C   0  0
    2.5040   -0.0080   -0.1870 C   0  0
    3.8650   -1.9750   -0.1520 C   0  0
    3.8110    0.2750   -0.2750 N   0  0
    4.6250   -0.8200   -0.2580 N   0  0
    4.3180    1.6020   -0.3750 C   0  0
    3.8320    2.5920    0.4100 C   0  0
    5.3910    1.9020   -1.3510 C   0  0
    4.3050    3.8890    0.3340 N   0  0
    5.8630    3.1600   -1.4350 C   0  0
    5.3050    4.2170   -0.5620 C   0  0
    3.7300    4.9200    1.2190 C   0  0
    5.7290    5.3480   -0.6410 O   0  0
    2.4360    5.4750    0.6410 C   0  0
    1.7680    6.6600    1.3030 C   0  0
    1.1370    5.2890    1.3970 C   0  0
   -2.7540   -4.6990   -4.9470 H   0  0
   -1.4430   -4.1930   -3.8850 H   0  0
   -2.2600   -3.0100   -4.9020 H   0  0
   -4.4320   -2.4820   -1.0230 H   0  0
   -2.4490   -0.2910   -1.0490 H   0  0
   -1.7700   -0.7030    1.3070 H   0  0
   -4.8170   -0.6560    0.7360 H   0  0
   -3.7190    0.7380    0.6950 H   0  0
   -4.7030    0.3420   -0.7110 H   0  0
   -2.3610   -4.2190    0.3300 H   0  0
   -3.5120   -1.0080    2.9710 H   0  0
    1.4300   -3.2210    0.0510 H   0  0
   -0.8590    0.4570   -0.0310 H   0  0
   -3.5860   -5.8300    1.7620 H   0  0
   -4.7360   -2.6270    4.3990 H   0  0
    1.2660    1.7870   -0.2210 H   0  0
   -4.7750   -5.0370    3.7970 H   0  0
    4.2070   -3.0020   -0.1130 H   0  0
    3.0490    2.3460    1.1170 H   0  0
    5.7950    1.1290   -1.9900 H   0  0
    6.6470    3.3980   -2.1410 H   0  0
    4.4610    5.7150    1.3610 H   0  0
    3.5610    4.4900    2.2050 H   0  0
    2.3910    5.4220   -0.4470 H   0  0
    2.2290    7.0720    2.2030 H   0  0
    1.2890    7.3970    0.6560 H   0  0
    0.2360    5.1020    0.8130 H   0  0
    1.1740    4.7750    2.3600 H   0  0
  1  2  1  0
  2  3  1  0
  2  4  1  0
  2  5  1  0
  4  6  2  0
  4  7  1  0
  7  8  1  0
  8  9  1  0
  8 10  1  0
  9 11  1  0
  9 12  1  0
 11 13  1  0
 12 14  2  0
 12 15  1  0
 13 16  2  0
 13 17  1  0
 14 18  1  0
 15 19  2  0
 16 20  1  0
 17 21  2  0
 18 22  2  0
 20 23  2  0
 20 24  1  0
 23 25  1  0
 24 26  2  0
 25 27  1  0
 27 28  2  0
 27 29  1  0
 28 30  1  0
 29 31  2  0
 30 32  1  0
 30 33  1  0
 32 34  2  0
 33 35  1  0
 35 36  1  0
 35 37  1  0
 19 22  1  0
 21 23  1  0
 25 26  1  0
 31 32  1  0
 36 37  1  0
  5 38  1  0
  5 39  1  0
  5 40  1  0
  7 41  1  0
  8 42  1  0
  9 43  1  0
 10 44  1  0
 10 45  1  0
 10 46  1  0
 14 47  1  0
 15 48  1  0
 16 49  1  0
 17 50  1  0
 18 51  1  0
 19 52  1  0
 21 53  1  0
 22 54  1  0
 24 55  1  0
 28 56  1  0
 29 57  1  0
 31 58  1  0
 33 59  1  0
 33 60  1  0
 35 61  1  0
 36 62  1  0
 36 63  1  0
 37 64  1  0
 37 65  1  0
M  END
> <Name>
CHEMBL4202668

> <IC50 nM>
4.4

> <Molecule_ChEMBL_ID>
CHEMBL4202668

> <Smiles>
C[C@H](NC(=O)C(C)(F)F)[C@H](Oc1ccc2c(cnn2-c2ccc(=O)n(CC3CC3)c2)c1)c1ccccc1

$$$$
CHEMBL1668077
  SciTegic08162514323D

 74 77  0  0  1  0            999 V2000
   -1.8110   -4.7330    1.5230 S   0  0
   -1.3160   -5.3280    2.7520 O   0  0
   -2.9020   -3.7990    1.7380 O   0  0
   -0.4960   -3.7930    0.8810 N   0  0
   -2.3770   -6.0020    0.4940 C   0  0
   -0.0310   -2.6520    1.6520 C   0  0  2  0  0  0
   -1.8240   -7.2910    0.6010 C   0  0
   -3.3910   -5.7440   -0.4470 C   0  0
    0.7990   -1.7150    0.7750 C   0  0
    0.7250   -3.1210    2.8960 C   0  0
   -2.2850   -8.3220   -0.2360 C   0  0
   -0.7520   -7.5700    1.5940 C   0  0
   -3.8500   -6.7770   -1.2830 C   0  0
   -3.9790   -4.3830   -0.5650 C   0  0
   -0.0290   -1.1020   -0.2720 N   0  0
   -3.2970   -8.0670   -1.1800 C   0  0
   -0.1430    0.2400   -0.3400 C   0  0
   -3.7830   -9.1580   -2.0650 C   0  0
    1.0900    0.9690   -0.4490 C   0  0
   -1.3870    0.9220   -0.3130 C   0  0
    1.0120    2.3520   -0.5220 C   0  0
    2.3670    0.4080   -0.4860 C   0  0
   -1.4160    2.3400   -0.3910 C   0  0
    2.3140    2.7230   -0.6130 N   0  0
   -0.2070    3.0720   -0.4960 C   0  0
    3.0800    1.5800   -0.5920 N   0  0
   -2.7030    3.0490   -0.3610 C   0  0
    2.7990    3.9880   -0.7110 C   0  0
    2.2930    5.0060    0.1230 C   0  0
    3.8110    4.2850   -1.6450 C   0  0
    2.7970    6.3160    0.0190 C   0  0
    4.3130    5.5940   -1.7460 C   0  0
    2.3070    7.3070    0.8280 N   0  0
    3.8070    6.6090   -0.9160 C   0  0
    2.0920    8.6580    0.2910 C   0  0
    3.3520    9.5120    0.4350 C   0  0
    1.5800    8.5980   -1.1500 C   0  0
    0.3110   -4.4100    0.7010 H   0  0
   -0.9770   -2.1860    1.9280 H   0  0
    1.2580   -0.9300    1.3770 H   0  0
    1.6250   -2.2540    0.3100 H   0  0
    1.1430   -2.2830    3.4570 H   0  0
    1.5470   -3.7810    2.6230 H   0  0
    0.0620   -3.6720    3.5640 H   0  0
   -1.8610   -9.3130   -0.1560 H   0  0
   -1.0960   -7.5980    2.6270 H   0  0
    0.0200   -6.8070    1.5190 H   0  0
   -0.2930   -8.5330    1.3710 H   0  0
   -4.6270   -6.5800   -2.0080 H   0  0
   -4.5630   -4.2250   -1.4710 H   0  0
   -3.1840   -3.6410   -0.5450 H   0  0
   -4.6310   -4.1950    0.2890 H   0  0
   -0.5160   -1.6680   -0.9380 H   0  0
   -4.5650   -8.8560   -2.7600 H   0  0
   -4.1760   -9.9710   -1.4550 H   0  0
   -2.9510   -9.5510   -2.6470 H   0  0
   -2.3130    0.3690   -0.2310 H   0  0
    2.7420   -0.6060   -0.4510 H   0  0
   -0.2150    4.1500   -0.5570 H   0  0
   -3.5720    2.3980   -0.2740 H   0  0
   -2.8160    3.6350   -1.2740 H   0  0
   -2.7190    3.7400    0.4820 H   0  0
    1.5160    4.7790    0.8420 H   0  0
    4.2110    3.5180   -2.2930 H   0  0
    5.0860    5.8200   -2.4630 H   0  0
    2.0940    7.1110    1.7870 H   0  0
    4.2070    7.6090   -1.0080 H   0  0
    1.3090    9.0100    0.9630 H   0  0
    3.9960    9.1510    1.2340 H   0  0
    3.0920   10.5470    0.6580 H   0  0
    3.9300    9.5040   -0.4880 H   0  0
    0.8280    7.8160   -1.2600 H   0  0
    1.1460    9.5530   -1.4430 H   0  0
    2.3960    8.3770   -1.8380 H   0  0
  1  2  2  0
  1  3  2  0
  1  4  1  0
  1  5  1  0
  4  6  1  0
  5  7  2  0
  5  8  1  0
  6  9  1  0
  6 10  1  0
  7 11  1  0
  7 12  1  0
  8 13  2  0
  8 14  1  0
  9 15  1  0
 11 16  2  0
 15 17  1  0
 16 18  1  0
 17 19  2  0
 17 20  1  0
 19 21  1  0
 19 22  1  0
 20 23  2  0
 21 24  1  0
 21 25  2  0
 22 26  2  0
 23 27  1  0
 24 28  1  0
 28 29  2  0
 28 30  1  0
 29 31  1  0
 30 32  2  0
 31 33  1  0
 31 34  2  0
 33 35  1  0
 35 36  1  0
 35 37  1  0
 13 16  1  0
 23 25  1  0
 24 26  1  0
 32 34  1  0
  4 38  1  0
  6 39  1  0
  9 40  1  0
  9 41  1  0
 10 42  1  0
 10 43  1  0
 10 44  1  0
 11 45  1  0
 12 46  1  0
 12 47  1  0
 12 48  1  0
 13 49  1  0
 14 50  1  0
 14 51  1  0
 14 52  1  0
 15 53  1  0
 18 54  1  0
 18 55  1  0
 18 56  1  0
 20 57  1  0
 22 58  1  0
 25 59  1  0
 27 60  1  0
 27 61  1  0
 27 62  1  0
 29 63  1  0
 30 64  1  0
 32 65  1  0
 33 66  1  0
 34 67  1  0
 35 68  1  0
 36 69  1  0
 36 70  1  0
 36 71  1  0
 37 72  1  0
 37 73  1  0
 37 74  1  0
M  END
> <Name>
CHEMBL1668077

> <IC50 nM>
6.31

> <Molecule_ChEMBL_ID>
CHEMBL1668077

> <Smiles>
Cc1cc(C)c(S(=O)(=O)N[C@@H](C)CNc2cc(C)cc3c2cnn3-c2cccc(NC(C)C)c2)c(C)c1

$$$$
CHEMBL1668081
  SciTegic08162514323D

 75 78  0  0  1  0            999 V2000
   -1.2320   -5.3870    0.9430 S   0  0
   -2.2770   -6.3930    0.9900 O   0  0
   -0.3830   -5.4960   -0.2320 O   0  0
   -2.0470   -3.8560    0.8050 N   0  0
   -0.2400   -5.5650    2.3480 C   0  0
   -2.7910   -3.5860   -0.4140 C   0  0  2  0  0  0
   -0.1040   -6.8280    2.9550 C   0  0
    0.4260   -4.4470    2.8850 C   0  0
   -3.1560   -2.1040   -0.5020 C   0  0
   -4.0120   -4.5020   -0.5100 C   0  0
    0.7030   -6.9710    4.0980 C   0  0
   -0.8050   -8.0120    2.3930 C   0  0
    1.2320   -4.5960    4.0270 C   0  0
    0.2850   -3.1110    2.2480 C   0  0
   -1.9510   -1.2720   -0.6250 N   0  0
    1.3710   -5.8560    4.6350 C   0  0
   -2.0650    0.0700   -0.6950 C   0  0
    2.2230   -6.0100    5.8420 C   0  0
   -0.8340    0.7990   -0.8030 C   0  0
   -3.3090    0.7540   -0.6660 C   0  0
   -0.9100    2.1840   -0.8770 C   0  0
    0.4430    0.2380   -0.8420 C   0  0
   -3.3380    2.1700   -0.7440 C   0  0
    0.3930    2.5530   -0.9690 N   0  0
   -2.1290    2.9020   -0.8520 C   0  0
    1.1580    1.4120   -0.9450 N   0  0
   -4.6270    2.8810   -0.7150 C   0  0
    0.8770    3.8180   -1.0640 C   0  0
    1.9020    4.1150   -1.9840 C   0  0
    0.3530    4.8380   -0.2460 C   0  0
    2.4040    5.4280   -2.0820 C   0  0
    0.8540    6.1460   -0.3460 C   0  0
    3.4000    5.7190   -2.9770 N   0  0
    1.8770    6.4430   -1.2620 C   0  0
    3.8520    7.1050   -3.1490 C   0  0  2  0  0  0
    4.4100    7.3400   -4.5270 C   0  0
    4.8340    7.5040   -2.0470 C   0  0
    5.5800    7.5980   -4.6900 O   0  0
    3.5680    7.2560   -5.6000 N   0  0
   -2.6840   -3.7310    1.6040 H   0  0
   -2.0530   -3.8460   -1.1740 H   0  0
   -3.7190   -1.7930    0.3770 H   0  0
   -3.8090   -1.9180   -1.3560 H   0  0
   -3.7050   -5.5390   -0.6430 H   0  0
   -4.6230   -4.4240    0.3890 H   0  0
   -4.6330   -4.2270   -1.3610 H   0  0
    0.8110   -7.9400    4.5640 H   0  0
   -0.7310   -8.1080    1.3110 H   0  0
   -1.8630   -7.9630    2.6500 H   0  0
   -0.3970   -8.9200    2.8360 H   0  0
    1.7440   -3.7380    4.4390 H   0  0
    0.3300   -3.1250    1.1580 H   0  0
    1.0760   -2.4530    2.6050 H   0  0
   -0.6700   -2.6720    2.5350 H   0  0
   -1.0490   -1.6990   -0.6560 H   0  0
    2.6950   -5.0860    6.1780 H   0  0
    3.0120   -6.7350    5.6410 H   0  0
    1.6210   -6.3950    6.6660 H   0  0
   -4.2340    0.2010   -0.5840 H   0  0
    0.8200   -0.7760   -0.8050 H   0  0
   -2.1390    3.9800   -0.9100 H   0  0
   -5.4960    2.2280   -0.6310 H   0  0
   -4.7360    3.4690   -1.6250 H   0  0
   -4.6430    3.5680    0.1310 H   0  0
    2.3070    3.3340   -2.6150 H   0  0
   -0.4340    4.6290    0.4670 H   0  0
    0.4510    6.9260    0.2830 H   0  0
    3.8140    4.9770   -3.5040 H   0  0
    2.2500    7.4570   -1.3240 H   0  0
    2.9860    7.7680   -3.1500 H   0  0
    4.4080    7.3650   -1.0530 H   0  0
    5.1170    8.5530   -2.1430 H   0  0
    5.7440    6.9080   -2.1060 H   0  0
    3.8910    7.4000   -6.5350 H   0  0
    2.6020    7.0430   -5.4630 H   0  0
  1  2  2  0
  1  3  2  0
  1  4  1  0
  1  5  1  0
  4  6  1  0
  5  7  2  0
  5  8  1  0
  6  9  1  0
  6 10  1  0
  7 11  1  0
  7 12  1  0
  8 13  2  0
  8 14  1  0
  9 15  1  0
 11 16  2  0
 15 17  1  0
 16 18  1  0
 17 19  2  0
 17 20  1  0
 19 21  1  0
 19 22  1  0
 20 23  2  0
 21 24  1  0
 21 25  2  0
 22 26  2  0
 23 27  1  0
 24 28  1  0
 28 29  2  0
 28 30  1  0
 29 31  1  0
 30 32  2  0
 31 33  1  0
 31 34  2  0
 33 35  1  0
 35 36  1  0
 35 37  1  0
 36 38  2  0
 36 39  1  0
 13 16  1  0
 23 25  1  0
 24 26  1  0
 32 34  1  0
  4 40  1  0
  6 41  1  0
  9 42  1  0
  9 43  1  0
 10 44  1  0
 10 45  1  0
 10 46  1  0
 11 47  1  0
 12 48  1  0
 12 49  1  0
 12 50  1  0
 13 51  1  0
 14 52  1  0
 14 53  1  0
 14 54  1  0
 15 55  1  0
 18 56  1  0
 18 57  1  0
 18 58  1  0
 20 59  1  0
 22 60  1  0
 25 61  1  0
 27 62  1  0
 27 63  1  0
 27 64  1  0
 29 65  1  0
 30 66  1  0
 32 67  1  0
 33 68  1  0
 34 69  1  0
 35 70  1  0
 37 71  1  0
 37 72  1  0
 37 73  1  0
 39 74  1  0
 39 75  1  0
M  END
> <Name>
CHEMBL1668081

> <IC50 nM>
5.01

> <Molecule_ChEMBL_ID>
CHEMBL1668081

> <Smiles>
Cc1cc(C)c(S(=O)(=O)N[C@@H](C)CNc2cc(C)cc3c2cnn3-c2cccc(N[C@@H](C)C(N)=O)c2)c(C)c1

$$$$
CHEMBL1668083
  SciTegic08162514323D

 60 62  0  0  1  0            999 V2000
   -1.5580   -6.4850   -2.3260 S   0  0
   -1.9240   -7.7330   -1.6800 O   0  0
   -2.6910   -5.6060   -2.5550 O   0  0
   -0.5190   -5.6510   -1.2070 N   0  0
   -0.7870   -6.8540   -3.8980 C   0  0
   -1.0920   -5.2090    0.0530 C   0  0  2  0  0  0
   -0.1780   -4.1840    0.7250 C   0  0
   -1.3980   -6.4060    0.9530 C   0  0
   -0.8920   -3.4510    1.7790 N   0  0
   -1.0060   -2.1090    1.7110 C   0  0
    0.2270   -1.3810    1.6020 C   0  0
   -2.2500   -1.4280    1.7400 C   0  0
    0.1490    0.0020    1.5290 C   0  0
    1.5040   -1.9420    1.5650 C   0  0
   -2.2790   -0.0100    1.6600 C   0  0
    1.4510    0.3730    1.4380 N   0  0
   -1.0700    0.7230    1.5550 C   0  0
    2.2170   -0.7700    1.4590 N   0  0
   -3.5660    0.6990    1.6900 C   0  0
    1.9380    1.6390    1.3400 C   0  0
    1.3110    2.5720    0.4920 C   0  0
    3.0670    2.0190    2.0900 C   0  0
    1.8150    3.8830    0.3930 C   0  0
    3.5690    3.3280    1.9880 C   0  0
    1.1510    4.8730   -0.5080 C   0  0
    2.9440    4.2600    1.1430 C   0  0
   -0.0170    4.7640   -0.7990 O   0  0
    1.8910    5.9100   -1.0000 N   0  0
    1.2520    6.8950   -1.8870 C   0  0
    0.7600    6.2320   -3.1740 C   0  0
    0.1470    7.6560   -1.1560 C   0  0
    0.3030   -6.2360   -1.0000 H   0  0
   -1.4350   -7.3770   -4.6040 H   0  0
    0.0940   -7.4730   -3.7340 H   0  0
   -0.4630   -5.9260   -4.3690 H   0  0
   -2.0140   -4.7360   -0.2870 H   0  0
    0.6950   -4.6720    1.1580 H   0  0
    0.2090   -3.4750   -0.0060 H   0  0
   -2.1580   -7.0570    0.5200 H   0  0
   -1.7600   -6.0740    1.9260 H   0  0
   -0.5020   -7.0040    1.1150 H   0  0
   -1.3010   -3.9360    2.5550 H   0  0
   -3.1760   -1.9810    1.8200 H   0  0
    1.8810   -2.9550    1.6000 H   0  0
   -1.0780    1.8010    1.4940 H   0  0
   -4.4350    0.0490    1.7770 H   0  0
   -3.6800    1.2850    0.7770 H   0  0
   -3.5820    1.3910    2.5330 H   0  0
    0.4420    2.2910   -0.0880 H   0  0
    3.5610    1.3180    2.7460 H   0  0
    4.4340    3.6210    2.5650 H   0  0
    3.3360    5.2640    1.0720 H   0  0
    2.8560    6.0000   -0.7580 H   0  0
    2.1020    7.5470   -2.0900 H   0  0
   -0.0920    5.5780   -2.9960 H   0  0
    1.5510    5.6330   -3.6250 H   0  0
    0.4570    6.9840   -3.9020 H   0  0
    0.5040    8.0290   -0.1970 H   0  0
   -0.2050    8.4960   -1.7560 H   0  0
   -0.7070    7.0040   -0.9630 H   0  0
  1  2  2  0
  1  3  2  0
  1  4  1  0
  1  5  1  0
  4  6  1  0
  6  7  1  0
  6  8  1  0
  7  9  1  0
  9 10  1  0
 10 11  2  0
 10 12  1  0
 11 13  1  0
 11 14  1  0
 12 15  2  0
 13 16  1  0
 13 17  2  0
 14 18  2  0
 15 19  1  0
 16 20  1  0
 20 21  2  0
 20 22  1  0
 21 23  1  0
 22 24  2  0
 23 25  1  0
 23 26  2  0
 25 27  2  0
 25 28  1  0
 28 29  1  0
 29 30  1  0
 29 31  1  0
 15 17  1  0
 16 18  1  0
 24 26  1  0
  4 32  1  0
  5 33  1  0
  5 34  1  0
  5 35  1  0
  6 36  1  0
  7 37  1  0
  7 38  1  0
  8 39  1  0
  8 40  1  0
  8 41  1  0
  9 42  1  0
 12 43  1  0
 14 44  1  0
 17 45  1  0
 19 46  1  0
 19 47  1  0
 19 48  1  0
 21 49  1  0
 22 50  1  0
 24 51  1  0
 26 52  1  0
 28 53  1  0
 29 54  1  0
 30 55  1  0
 30 56  1  0
 30 57  1  0
 31 58  1  0
 31 59  1  0
 31 60  1  0
M  END
> <Name>
CHEMBL1668083

> <IC50 nM>
125.89

> <Molecule_ChEMBL_ID>
CHEMBL1668083

> <Smiles>
Cc1cc(NC[C@H](C)NS(C)(=O)=O)c2cnn(-c3cccc(C(=O)NC(C)C)c3)c2c1

$$$$
CHEMBL1668092
  SciTegic08162514323D

 72 76  0  0  1  0            999 V2000
    6.2340   -0.5530    2.9490 S   0  0
    5.4570   -1.4420    2.1040 O   0  0
    7.4280   -0.0390    2.2970 O   0  0
    5.2210    0.8300    3.2500 N   0  0
    6.7190   -1.4360    4.4280 C   0  0
    3.9140    0.6010    3.8400 C   0  0  2  0  0  0
    8.1840   -1.8150    4.4450 C   0  0
    7.6860   -0.6620    5.2970 C   0  0
    2.9470    1.7230    3.4530 C   0  0
    4.0330    0.4200    5.3540 C   0  0
    2.6860    1.7170    2.0080 N   0  0
    1.8070    0.8380    1.4850 C   0  0
    1.5720    0.9490    0.0740 C   0  0
    1.1390   -0.1510    2.2540 C   0  0
    0.6720    0.0600   -0.4980 C   0  0
    2.1700    1.8750   -0.7810 C   0  0
    0.2270   -1.0370    1.6230 C   0  0
    0.6800    0.4260   -1.8070 N   0  0
   -0.0160   -0.9400    0.2310 C   0  0
    1.5530    1.4780   -1.9450 N   0  0
   -0.4670   -2.0630    2.4180 C   0  0
   -0.0390   -0.1330   -2.8140 C   0  0
   -1.4000   -0.4450   -2.6250 C   0  0
    0.5740   -0.4040   -4.0530 C   0  0
   -2.1450   -1.0240   -3.6700 C   0  0
   -0.1700   -0.9830   -5.0960 C   0  0
   -3.5860   -1.3540   -3.4690 C   0  0
   -1.5270   -1.2930   -4.9040 C   0  0
   -3.9960   -2.4770   -3.6410 O   0  0
   -4.4430   -0.3560   -3.0860 N   0  0
   -5.8520   -0.6560   -2.7300 C   0  0
   -3.9840    1.0530   -3.0120 C   0  0
   -6.8360    0.3080   -3.4220 C   0  0  3  0  0  0
   -4.9790    2.0040   -3.6970 C   0  0
   -6.4220    1.7750   -3.2230 C   0  0
   -8.2700    0.0680   -2.9410 C   0  0
   -9.1390    0.7830   -3.7930 O   0  0
    5.7270    1.5040    3.8400 H   0  0
    5.9470   -2.0800    4.8500 H   0  0
    3.6270   -0.3360    3.3610 H   0  0
    8.7870   -1.5720    3.5700 H   0  0
    8.4610   -2.7380    4.9530 H   0  0
    7.6310   -0.8170    6.3750 H   0  0
    7.9570    0.3480    4.9900 H   0  0
    3.3500    2.6930    3.7400 H   0  0
    2.0040    1.6190    3.9900 H   0  0
    3.0550    0.2300    5.7970 H   0  0
    4.6990   -0.4080    5.5920 H   0  0
    4.4400    1.3180    5.8190 H   0  0
    3.1580    2.3630    1.4100 H   0  0
    1.3180   -0.2310    3.3170 H   0  0
    2.8890    2.6720   -0.6410 H   0  0
   -0.7070   -1.6080   -0.2620 H   0  0
   -0.2190   -2.0530    3.4790 H   0  0
   -0.2250   -3.0510    2.0270 H   0  0
   -1.5450   -1.9240    2.3280 H   0  0
   -1.8830   -0.2420   -1.6780 H   0  0
    1.6170   -0.1720   -4.2170 H   0  0
    0.3030   -1.1900   -6.0450 H   0  0
   -2.0900   -1.7360   -5.7130 H   0  0
   -5.9510   -0.5800   -1.6460 H   0  0
   -6.0940   -1.6880   -2.9940 H   0  0
   -3.8770    1.3220   -1.9590 H   0  0
   -2.9960    1.1560   -3.4650 H   0  0
   -6.8150    0.1010   -4.4920 H   0  0
   -4.6880    3.0370   -3.5120 H   0  0
   -4.9320    1.8630   -4.7770 H   0  0
   -7.0980    2.4350   -3.7680 H   0  0
   -6.5040    2.0430   -2.1680 H   0  0
   -8.4080    0.4410   -1.9280 H   0  0
   -8.5270   -0.9880   -3.0040 H   0  0
  -10.0430    0.6210   -3.4780 H   0  0
  1  2  2  0
  1  3  2  0
  1  4  1  0
  1  5  1  0
  4  6  1  0
  5  7  1  0
  5  8  1  0
  6  9  1  0
  6 10  1  0
  9 11  1  0
 11 12  1  0
 12 13  2  0
 12 14  1  0
 13 15  1  0
 13 16  1  0
 14 17  2  0
 15 18  1  0
 15 19  2  0
 16 20  2  0
 17 21  1  0
 18 22  1  0
 22 23  2  0
 22 24  1  0
 23 25  1  0
 24 26  2  0
 25 27  1  0
 25 28  2  0
 27 29  2  0
 27 30  1  0
 30 31  1  0
 30 32  1  0
 31 33  1  0
 32 34  1  0
 33 35  1  0
 33 36  1  0
 36 37  1  0
  7  8  1  0
 17 19  1  0
 18 20  1  0
 26 28  1  0
 34 35  1  0
  4 38  1  0
  5 39  1  0
  6 40  1  0
  7 41  1  0
  7 42  1  0
  8 43  1  0
  8 44  1  0
  9 45  1  0
  9 46  1  0
 10 47  1  0
 10 48  1  0
 10 49  1  0
 11 50  1  0
 14 51  1  0
 16 52  1  0
 19 53  1  0
 21 54  1  0
 21 55  1  0
 21 56  1  0
 23 57  1  0
 24 58  1  0
 26 59  1  0
 28 60  1  0
 31 61  1  0
 31 62  1  0
 32 63  1  0
 32 64  1  0
 33 65  1  0
 34 66  1  0
 34 67  1  0
 35 68  1  0
 35 69  1  0
 36 70  1  0
 36 71  1  0
 37 72  1  0
M  END
> <Name>
CHEMBL1668092

> <IC50 nM>
125.89

> <Molecule_ChEMBL_ID>
CHEMBL1668092

> <Smiles>
Cc1cc(NC[C@H](C)NS(=O)(=O)C2CC2)c2cnn(-c3cccc(C(=O)N4CCCC(CO)C4)c3)c2c1

$$$$
CHEMBL3582112
  SciTegic08162514323D

 51 54  0  0  0  0            999 V2000
    3.6970   -2.2150   -0.7130 O   0  0
    2.7380   -1.7600   -0.1270 C   0  0
    1.9430   -2.6230    0.8380 C   0  0
    2.3090   -0.3170   -0.3480 C   0  0
    0.4900   -2.3090    0.8320 N   0  0
    2.1170   -4.1040    0.4730 C   0  0
    2.4880   -2.3930    2.2500 C   0  0
    0.8420   -0.1130   -0.1720 C   0  0
    3.0630    0.5490    0.6680 C   0  0
    2.7270    0.0960   -1.7700 C   0  0
    0.0180   -1.1170    0.3850 C   0  0
    0.2310    1.1030   -0.5590 C   0  0
   -1.3940   -0.9590    0.5310 C   0  0
   -1.1660    1.2990   -0.4140 C   0  0
   -1.9710    0.2580    0.1270 C   0  0
   -2.4450   -1.9010    1.0720 C   0  0
   -1.4610    2.6640   -0.9100 C   0  0
   -3.4610    0.2640    0.3520 C   0  0
   -3.7870   -1.1950    0.7520 C   0  0
   -1.0590    3.8340   -0.3130 C   0  0
   -2.1840    2.9610   -2.0470 C   0  0
   -1.5430    4.8440   -1.0960 O   0  0
   -0.2480    4.0410    0.9490 C   0  0
   -2.2110    4.3300   -2.1290 N   0  0
   -2.8420    2.0390   -3.0530 C   0  0
   -0.1150   -3.0220    1.1890 H   0  0
    1.7500   -4.3210   -0.5290 H   0  0
    1.5720   -4.7400    1.1720 H   0  0
    3.1680   -4.3910    0.5120 H   0  0
    2.2520   -1.3930    2.6170 H   0  0
    3.5700   -2.5060    2.2700 H   0  0
    2.0630   -3.1120    2.9510 H   0  0
    2.7190    0.3730    1.6880 H   0  0
    2.9280    1.6070    0.4490 H   0  0
    4.1330    0.3360    0.6370 H   0  0
    2.1800   -0.4590   -2.5310 H   0  0
    3.7910   -0.0840   -1.9260 H   0  0
    2.5410    1.1580   -1.9320 H   0  0
    0.8580    1.8850   -0.9690 H   0  0
   -2.3090   -2.0220    2.1370 H   0  0
   -2.3870   -2.8730    0.6020 H   0  0
   -3.9900    0.5640   -0.5410 H   0  0
   -3.7030    0.9530    1.1470 H   0  0
   -4.4730   -1.2380    1.5860 H   0  0
   -4.2680   -1.6970   -0.0760 H   0  0
    0.0740    5.0700    1.1110 H   0  0
    0.6430    3.4140    0.9160 H   0  0
   -0.8380    3.7380    1.8140 H   0  0
   -2.3480    2.1420   -4.0180 H   0  0
   -2.8200    1.0170   -2.6760 H   0  0
   -3.8850    2.3260   -3.1800 H   0  0
  1  2  2  0
  2  3  1  0
  2  4  1  0
  3  5  1  0
  3  6  1  0
  3  7  1  0
  4  8  1  0
  4  9  1  0
  4 10  1  0
  5 11  1  0
  8 12  2  0
 11 13  2  0
 12 14  1  0
 13 15  1  0
 13 16  1  0
 14 17  1  0
 15 18  1  0
 16 19  1  0
 17 20  2  0
 17 21  1  0
 20 22  1  0
 20 23  1  0
 21 24  2  0
 21 25  1  0
  8 11  1  0
 14 15  2  0
 18 19  1  0
 22 24  1  0
  5 26  1  0
  6 27  1  0
  6 28  1  0
  6 29  1  0
  7 30  1  0
  7 31  1  0
  7 32  1  0
  9 33  1  0
  9 34  1  0
  9 35  1  0
 10 36  1  0
 10 37  1  0
 10 38  1  0
 12 39  1  0
 16 40  1  0
 16 41  1  0
 18 42  1  0
 18 43  1  0
 19 44  1  0
 19 45  1  0
 23 46  1  0
 23 47  1  0
 23 48  1  0
 25 49  1  0
 25 50  1  0
 25 51  1  0
M  END
> <Name>
CHEMBL3582112

> <IC50 nM>
30

> <Molecule_ChEMBL_ID>
CHEMBL3582112

> <Smiles>
Cc1noc(C)c1-c1cc2c(c3c1CCC3)NC(C)(C)C(=O)C2(C)C

$$$$
CHEMBL50023
  SciTegic08162514323D

 41 42  0  0  1  0            999 V2000
    2.1660   -4.8540   -3.5060 O   0  0
    2.8830   -4.1600   -2.8200 N   0  3
    4.0510   -4.4020   -2.5190 O   0  5
    2.3320   -2.9770   -2.3240 C   0  0
    3.1150   -2.1290   -1.5230 C   0  0
    1.0040   -2.6450   -2.6330 C   0  0
    2.5600   -0.9380   -1.0250 C   0  0
    0.4510   -1.4530   -2.1330 C   0  0
    1.2300   -0.6000   -1.3300 C   0  0
    0.6440    0.6620   -0.8030 C   0  0
    0.2670    0.5310    0.6800 C   0  0  2  0  0  0
   -0.7480   -0.5840    0.8380 C   0  0
   -0.2660    1.8610    1.2680 C   0  0
   -2.1860   -0.2480    0.8670 C   0  0
   -0.3280   -1.8570    0.9550 C   0  0
   -1.6530    2.1800    0.6660 C   0  0
   -0.3870    1.7440    2.7930 C   0  0
    0.7050    3.0100    0.9630 C   0  0
   -2.6250    1.0250    0.7910 C   0  0
   -4.1000    1.3320    0.8360 C   0  0
    4.1370   -2.3910   -1.2890 H   0  0
    0.4060   -3.3010   -3.2500 H   0  0
    3.1620   -0.2850   -0.4080 H   0  0
   -0.5700   -1.1950   -2.3690 H   0  0
    1.3490    1.4790   -0.9510 H   0  0
   -0.2250    0.9360   -1.3980 H   0  0
    1.1760    0.2620    1.2230 H   0  0
   -2.9080   -1.0470    0.9550 H   0  0
   -0.9450   -2.7360    1.0650 H   0  0
    0.7420   -1.9940    0.9360 H   0  0
   -2.0740    3.0640    1.1470 H   0  0
   -1.5510    2.4280   -0.3920 H   0  0
    0.5760    1.5470    3.2620 H   0  0
   -1.0630    0.9360    3.0670 H   0  0
   -0.7810    2.6660    3.2210 H   0  0
    1.7340    2.7440    1.2030 H   0  0
    0.4450    3.8970    1.5410 H   0  0
    0.6660    3.2770   -0.0920 H   0  0
   -4.6150    0.5880    1.4430 H   0  0
   -4.2580    2.3400    1.2170 H   0  0
   -4.5180    1.2870   -0.1700 H   0  0
  1  2  2  0
  2  3  1  0
  2  4  1  0
  4  5  2  0
  4  6  1  0
  5  7  1  0
  6  8  2  0
  7  9  2  0
  9 10  1  0
 11 10  1  0
 11 12  1  0
 11 13  1  0
 12 14  1  0
 12 15  2  0
 13 16  1  0
 13 17  1  0
 13 18  1  0
 14 19  2  0
 19 20  1  0
  8  9  1  0
 16 19  1  0
  5 21  1  0
  6 22  1  0
  7 23  1  0
  8 24  1  0
 10 25  1  0
 10 26  1  0
 11 27  1  0
 14 28  1  0
 15 29  1  0
 15 30  1  0
 16 31  1  0
 16 32  1  0
 17 33  1  0
 17 34  1  0
 17 35  1  0
 18 36  1  0
 18 37  1  0
 18 38  1  0
 20 39  1  0
 20 40  1  0
 20 41  1  0
M  CHG  2   2   1   3  -1
M  END
> <Name>
CHEMBL50023

> <IC50 nM>
10000

> <Molecule_ChEMBL_ID>
CHEMBL50023

> <Smiles>
C=C1C=C(C)CC(C)(C)C1Cc1ccc([N+](=O)[O-])cc1

$$$$
CHEMBL3421876
  SciTegic08162514323D

 53 56  0  0  1  0            999 V2000
   -4.1430   -4.0390    1.2690 O   0  0
   -3.2790   -3.1880    0.6970 C   0  0
   -3.6700   -1.8590    0.4280 C   0  0
   -1.9770   -3.6190    0.3670 C   0  0
   -2.7620   -0.9510   -0.1720 C   0  0
   -1.0620   -2.7250   -0.2360 C   0  0
   -1.4410   -1.3810   -0.5160 C   0  0
   -3.2030    0.4490   -0.4430 C   0  0
   -0.5210   -0.3750   -1.1490 C   0  0  1  0  0  0
   -2.0780    1.5180   -0.4470 C   0  0
   -0.6660    0.9260   -0.3070 C   0  0  2  0  0  0
    0.9900   -0.7660   -1.2680 C   0  0
   -1.0250   -0.1430   -2.5860 C   0  0
    0.4670    1.9240   -0.5860 C   0  0
    1.8690   -0.2190   -0.1210 C   0  0  2  0  0  0
   -0.9550   -1.4040   -3.4470 C   0  0
    1.8590    1.3630   -0.1510 C   0  0  1  0  0  0
    3.1820   -0.7320   -0.2910 O   0  0
    1.4100   -0.8200    1.2190 C   0  0
    2.7830    1.8500   -1.1150 O   0  0
    2.2850    1.9400    1.1620 C   0  0
    1.3590    2.5780    1.9370 N   0  0
    3.6270    1.8180    1.5760 C   0  0
    1.7330    3.1110    3.1370 C   0  0
    4.0200    2.3630    2.8100 C   0  0
    3.0590    3.0180    3.6000 C   0  0
   -5.0310   -3.7320    1.4900 H   0  0
   -4.6700   -1.5370    0.6820 H   0  0
   -1.6760   -4.6350    0.5740 H   0  0
   -0.0840   -3.1090   -0.4670 H   0  0
   -3.9670    0.7460    0.2770 H   0  0
   -3.6990    0.4530   -1.4160 H   0  0
   -2.1440    2.0960   -1.3710 H   0  0
   -2.2480    2.2340    0.3570 H   0  0
   -0.5720    0.6820    0.7540 H   0  0
    1.3870   -0.3220   -2.1840 H   0  0
    1.1500   -1.8280   -1.4340 H   0  0
   -2.0370    0.2640   -2.5800 H   0  0
   -0.4800    0.6760   -3.0570 H   0  0
    0.2540    2.8810   -0.1060 H   0  0
    0.4380    2.1370   -1.6580 H   0  0
   -1.3380   -1.2070   -4.4490 H   0  0
    0.0700   -1.7640   -3.5220 H   0  0
   -1.5570   -2.2010   -3.0120 H   0  0
    3.1000   -1.6890   -0.4240 H   0  0
    1.8400   -1.8070    1.3890 H   0  0
    0.3260   -0.9200    1.2440 H   0  0
    1.7070   -0.1800    2.0510 H   0  0
    3.6490    1.4730   -0.8970 H   0  0
    4.3500    1.3130    0.9530 H   0  0
    0.9920    3.6130    3.7420 H   0  0
    5.0430    2.2810    3.1440 H   0  0
    3.3360    3.4450    4.5530 H   0  0
  1  2  1  0
  2  3  2  0
  2  4  1  0
  3  5  1  0
  4  6  2  0
  5  7  2  0
  5  8  1  0
  7  9  1  0
  8 10  1  0
  9 11  1  0
  9 12  1  0
  9 13  1  0
 11 14  1  0
 12 15  1  0
 13 16  1  0
 14 17  1  0
 15 18  1  0
 15 19  1  0
 17 20  1  0
 17 21  1  0
 21 22  2  0
 21 23  1  0
 22 24  1  0
 23 25  2  0
 24 26  2  0
  6  7  1  0
 10 11  1  0
 15 17  1  0
 25 26  1  0
  1 27  1  0
  3 28  1  0
  4 29  1  0
  6 30  1  0
  8 31  1  0
  8 32  1  0
 10 33  1  0
 10 34  1  0
 11 35  1  0
 12 36  1  0
 12 37  1  0
 13 38  1  0
 13 39  1  0
 14 40  1  0
 14 41  1  0
 16 42  1  0
 16 43  1  0
 16 44  1  0
 18 45  1  0
 19 46  1  0
 19 47  1  0
 19 48  1  0
 20 49  1  0
 23 50  1  0
 24 51  1  0
 25 52  1  0
 26 53  1  0
M  END
> <Name>
CHEMBL3421876

> <IC50 nM>
1.5

> <Molecule_ChEMBL_ID>
CHEMBL3421876

> <Smiles>
CC[C@@]12C[C@@](C)(O)[C@](O)(c3ccccn3)C[C@H]1CCc1cc(O)ccc12

$$$$
CHEMBL3421871
  SciTegic08162514323D

 54 57  0  0  1  0            999 V2000
   -4.1510   -4.0880    1.2320 O   0  0
   -3.2870   -3.2380    0.6620 C   0  0
   -3.6780   -1.9080    0.3930 C   0  0
   -1.9850   -3.6700    0.3300 C   0  0
   -2.7700   -1.0000   -0.2090 C   0  0
   -1.0720   -2.7750   -0.2710 C   0  0
   -1.4490   -1.4300   -0.5510 C   0  0
   -3.2110    0.3980   -0.4800 C   0  0
   -0.5310   -0.4260   -1.1860 C   0  0  1  0  0  0
   -2.0880    1.4690   -0.4840 C   0  0
   -0.6740    0.8770   -0.3420 C   0  0  2  0  0  0
    0.9820   -0.8160   -1.3050 C   0  0
   -1.0330   -0.1910   -2.6230 C   0  0
    0.4590    1.8750   -0.6230 C   0  0
    1.8610   -0.2680   -0.1560 C   0  0  2  0  0  0
   -0.9510   -1.4490   -3.4880 C   0  0
    1.8510    1.3130   -0.1860 C   0  0  1  0  0  0
    3.1740   -0.7830   -0.3260 O   0  0
    1.4020   -0.8690    1.1820 C   0  0
    2.7730    1.7990   -1.1500 O   0  0
    2.2750    1.8910    1.1250 C   0  0
    1.3090    2.2680    2.0740 C   0  0
    3.6430    2.0570    1.4100 C   0  0
    1.7090    2.8110    3.3090 C   0  0
    4.0410    2.6020    2.6450 C   0  0
    3.0740    2.9770    3.5920 C   0  0
   -5.0390   -3.7810    1.4550 H   0  0
   -4.6780   -1.5860    0.6460 H   0  0
   -1.6840   -4.6860    0.5370 H   0  0
   -0.0940   -3.1600   -0.5020 H   0  0
   -3.9750    0.6970    0.2400 H   0  0
   -3.7070    0.4020   -1.4510 H   0  0
   -2.1520    2.0450   -1.4060 H   0  0
   -2.2560    2.1860    0.3200 H   0  0
   -0.5800    0.6310    0.7170 H   0  0
    1.3790   -0.3710   -2.2210 H   0  0
    1.1420   -1.8790   -1.4710 H   0  0
   -2.0490    0.2050   -2.6170 H   0  0
   -0.4960    0.6330   -3.0900 H   0  0
    0.2440    2.8300   -0.1430 H   0  0
    0.4300    2.0880   -1.6930 H   0  0
   -1.3240   -1.2520   -4.4920 H   0  0
    0.0760   -1.8050   -3.5550 H   0  0
   -1.5550   -2.2520   -3.0610 H   0  0
    3.1050   -1.7500   -0.3220 H   0  0
    1.6680   -1.9240    1.2660 H   0  0
    0.3200   -0.7890    1.2910 H   0  0
    1.8610   -0.3440    2.0200 H   0  0
    3.6020    1.3070   -1.0290 H   0  0
    0.2580    2.1410    1.8610 H   0  0
    4.3910    1.7700    0.6860 H   0  0
    0.9670    3.1000    4.0370 H   0  0
    5.0920    2.7290    2.8630 H   0  0
    3.3830    3.3950    4.5410 H   0  0
  1  2  1  0
  2  3  2  0
  2  4  1  0
  3  5  1  0
  4  6  2  0
  5  7  2  0
  5  8  1  0
  7  9  1  0
  8 10  1  0
  9 11  1  0
  9 12  1  0
  9 13  1  0
 11 14  1  0
 12 15  1  0
 13 16  1  0
 14 17  1  0
 15 18  1  0
 15 19  1  0
 17 20  1  0
 17 21  1  0
 21 22  2  0
 21 23  1  0
 22 24  1  0
 23 25  2  0
 24 26  2  0
  6  7  1  0
 10 11  1  0
 15 17  1  0
 25 26  1  0
  1 27  1  0
  3 28  1  0
  4 29  1  0
  6 30  1  0
  8 31  1  0
  8 32  1  0
 10 33  1  0
 10 34  1  0
 11 35  1  0
 12 36  1  0
 12 37  1  0
 13 38  1  0
 13 39  1  0
 14 40  1  0
 14 41  1  0
 16 42  1  0
 16 43  1  0
 16 44  1  0
 18 45  1  0
 19 46  1  0
 19 47  1  0
 19 48  1  0
 20 49  1  0
 22 50  1  0
 23 51  1  0
 24 52  1  0
 25 53  1  0
 26 54  1  0
M  END
> <Name>
CHEMBL3421871

> <IC50 nM>
3.5

> <Molecule_ChEMBL_ID>
CHEMBL3421871

> <Smiles>
CC[C@@]12C[C@@](C)(O)[C@](O)(c3ccccc3)C[C@H]1CCc1cc(O)ccc12

$$$$
CHEMBL209259
  SciTegic08162514323D

 61 64  0  0  1  0            999 V2000
    3.0140    1.3610    2.1540 F   0  0
    1.8650    1.9220    1.6580 C   0  0
    1.0470    2.2850    2.6970 F   0  0
    2.1800    3.0290    0.9160 F   0  0
    1.1430    0.9040    0.7730 C   0  0  3  0  0  0
    1.9920    0.5740   -0.3030 O   0  0
   -0.1620    1.4300    0.2400 C   0  0
    0.7930   -0.3850    1.5200 C   0  0
   -1.2190    1.0020    0.6450 O   0  0
   -0.1330    2.4060   -0.7150 N   0  0
    0.7850   -1.6170    0.6040 C   0  0  3  0  0  0
   -1.2810    2.8950   -1.2090 C   0  0
    2.0940   -2.3440    0.6740 C   0  0
   -0.4080   -2.5040    1.0250 C   0  0
    0.5720   -1.1460   -0.8420 C   0  0
   -2.3440    3.2460   -0.3360 C   0  0
   -1.4410    3.0670   -2.6090 C   0  0
    2.1600   -3.7710    0.7540 C   0  0
    3.3090   -1.6000    0.6450 C   0  0
   -0.3420   -3.8850    0.3730 C   0  0
   -0.4080   -2.0290   -1.6130 C   0  0
   -3.5550    3.7600   -0.8650 C   0  0
   -2.6500    3.5800   -3.1390 C   0  0
    3.4220   -4.4180    0.7930 C   0  0
    0.9360   -4.6150    0.8070 C   0  0
    4.5610   -2.2520    0.6910 C   0  0
   -3.7010    3.9260   -2.2580 C   0  0
   -4.6970    4.1390    0.0180 C   0  0
    4.6090   -3.6580    0.7620 C   0  0
   -4.9960    4.4730   -2.7500 C   0  0
   -5.7870    4.6060   -0.4940 N   0  0
   -4.6110    3.9900    1.5160 C   0  0
    5.8440   -4.3070    0.8010 N   0  3
   -5.2110    4.6510   -3.9280 O   0  0
   -6.0160    4.8050   -1.9240 O   0  0
    6.8320   -3.6090    0.7770 O   0  0
    5.8280   -5.5350    0.8570 O   0  5
    2.7070    1.2290   -0.3130 H   0  0
    1.4690   -0.5350    2.3630 H   0  0
   -0.1600   -0.2830    2.0390 H   0  0
    0.7420    2.7580   -1.0470 H   0  0
   -1.3520   -2.0180    0.7700 H   0  0
   -0.4180   -2.6310    2.1090 H   0  0
    0.2520   -0.1050   -0.8630 H   0  0
    1.5250   -1.0780   -1.3670 H   0  0
   -2.2320    3.1210    0.7320 H   0  0
   -0.6450    2.8050   -3.2930 H   0  0
    3.2890   -0.5210    0.5860 H   0  0
   -0.3650   -3.7830   -0.7130 H   0  0
   -1.2150   -4.4750    0.6460 H   0  0
   -0.8420   -1.4840   -2.4510 H   0  0
    0.0920   -2.9220   -1.9900 H   0  0
   -1.2250   -2.3530   -0.9670 H   0  0
   -2.7580    3.7070   -4.2070 H   0  0
    3.4790   -5.4960    0.8460 H   0  0
    0.8160   -4.9650    1.8320 H   0  0
    1.0640   -5.5040    0.1880 H   0  0
    5.4750   -1.6760    0.6740 H   0  0
   -5.5200    4.2930    2.0370 H   0  0
   -3.7870    4.5920    1.9000 H   0  0
   -4.4120    2.9490    1.7730 H   0  0
  1  2  1  0
  2  3  1  0
  2  4  1  0
  2  5  1  0
  5  6  1  0
  5  7  1  0
  5  8  1  0
  7  9  2  0
  7 10  1  0
  8 11  1  0
 10 12  1  0
 11 13  1  0
 11 14  1  0
 11 15  1  0
 12 16  2  0
 12 17  1  0
 13 18  2  0
 13 19  1  0
 14 20  1  0
 15 21  1  0
 16 22  1  0
 17 23  2  0
 18 24  1  0
 18 25  1  0
 19 26  2  0
 22 27  2  0
 22 28  1  0
 24 29  2  0
 27 30  1  0
 28 31  2  0
 28 32  1  0
 29 33  1  0
 30 34  2  0
 30 35  1  0
 33 36  2  0
 33 37  1  0
 20 25  1  0
 23 27  1  0
 26 29  1  0
 31 35  1  0
  6 38  1  0
  8 39  1  0
  8 40  1  0
 10 41  1  0
 14 42  1  0
 14 43  1  0
 15 44  1  0
 15 45  1  0
 16 46  1  0
 17 47  1  0
 19 48  1  0
 20 49  1  0
 20 50  1  0
 21 51  1  0
 21 52  1  0
 21 53  1  0
 23 54  1  0
 24 55  1  0
 25 56  1  0
 25 57  1  0
 26 58  1  0
 32 59  1  0
 32 60  1  0
 32 61  1  0
M  CHG  2  33   1  37  -1
M  END
> <Name>
CHEMBL209259

> <IC50 nM>
7.94

> <Molecule_ChEMBL_ID>
CHEMBL209259

> <Smiles>
CCC1(CC(O)(C(=O)Nc2ccc3c(=O)onc(C)c3c2)C(F)(F)F)CCCc2cc([N+](=O)[O-])ccc21

$$$$
CHEMBL374732
  SciTegic08162514323D

139147  0  0  1  0            999 V2000
    2.4120    0.0530   -9.3460 O   0  0
    1.2400    0.1350   -9.0630 C   0  0
    0.3420    0.9940   -9.8610 C   0  0
    0.6660   -0.6310   -7.8950 C   0  0
   -0.9800    1.0820   -9.6020 C   0  0
   -0.8480   -0.9010   -8.0120 C   0  0
   -1.6130    0.3080   -8.5100 C   0  0
   -1.8790    1.9820  -10.4120 C   0  0
   -2.8180    0.6850   -8.0040 C   0  0
   -2.6930    2.8500   -9.4570 C   0  0
   -3.6070   -0.2050   -7.0490 C   0  0  1  0  0  0
   -3.4320    2.0390   -8.3580 C   0  0  1  0  0  0
   -3.2460    0.1030   -5.6410 C   0  0
   -5.1450   -0.1450   -7.2790 C   0  0
   -4.9510    1.9220   -8.6190 C   0  0  1  0  0  0
   -2.2290    1.0330   -5.3630 C   0  0
   -3.9200   -0.5330   -4.5840 C   0  0
   -5.6620    1.3030   -7.4020 C   0  0  1  0  0  0
   -5.6970    3.2520   -8.7500 C   0  0
   -1.8850    1.3260   -4.0310 C   0  0
   -3.5780   -0.2420   -3.2520 C   0  0
   -7.1640    1.5600   -7.7110 C   0  0  2  0  0  0
   -5.3130    2.1090   -6.1370 C   0  0
   -7.1560    2.9470   -8.3890 C   0  0
   -2.5590    0.6890   -2.9710 C   0  0
   -0.8070    2.3120   -3.7520 C   0  0
   -4.2970   -0.9240   -2.1430 C   0  0
   -7.9450    1.6030   -6.5240 O   0  0
   -7.7720    0.5450   -8.5840 C   0  0
   -2.2360    0.9630   -1.7210 O   0  0
   -8.2910   -0.2720   -9.2810 C   0  0
   -1.5760   -0.0410   -0.9670 C   0  0
   -8.9360   -1.2680  -10.1290 C   0  0
   -0.7480    0.6130    0.1410 C   0  0
   -0.1050   -0.4060    0.8710 O   0  0
    0.7830    0.0880    1.8540 C   0  0  2  0  0  0
    1.6130   -1.0760    2.4430 C   0  0
   -0.0370    0.8380    2.9260 C   0  0
    1.0080   -1.5820    3.7660 C   0  0  2  0  0  0
    0.7360    0.9160    4.2500 C   0  0
    1.0490   -0.4810    4.8690 C   0  0  2  0  0  0
    1.5700   -2.9420    4.2310 C   0  0
    2.4410   -0.4220    5.5680 C   0  0  2  0  0  0
   -0.0350   -0.8200    5.9060 C   0  0
    2.9360   -2.8600    4.9260 C   0  0  2  0  0  0
    2.9200   -1.8130    6.0590 C   0  0  1  0  0  0
    2.4860    0.6290    6.7110 C   0  0
    3.9320   -2.5630    3.9650 O   0  0
    4.3030   -1.6560    6.7210 C   0  0  1  0  0  0
    3.8460    0.7150    7.4360 C   0  0  1  0  0  0
    4.2620   -0.6900    7.9140 C   0  0  2  0  0  0
    4.9220   -2.9160    7.3260 C   0  0
    4.8050    1.2750    6.5550 O   0  0
    5.6990   -0.8690    8.4260 C   0  0  2  0  0  0
    3.2930   -1.1900    8.9980 C   0  0
    5.9280   -2.3850    8.3500 C   0  0
    5.9400   -0.3090    9.8260 C   0  0  1  0  0  0
    7.3480   -0.6840   10.2890 C   0  0
    5.7030    1.2010    9.8170 C   0  0
    7.3540   -1.4040   11.6370 C   0  0
    8.7360   -1.8240   12.0590 C   0  0
    9.6920   -1.6270   11.3440 O   0  0
    8.8110   -2.4080   13.2520 O   0  0
    0.7660    1.5640  -10.6720 H   0  0
    0.8630   -0.0630   -6.9840 H   0  0
    1.1950   -1.5780   -7.7810 H   0  0
   -1.2010   -1.2210   -7.0290 H   0  0
   -1.0250   -1.7310   -8.6940 H   0  0
   -2.5430    1.3650  -11.0200 H   0  0
   -1.3030    2.6050  -11.0940 H   0  0
   -2.0060    3.5390   -8.9670 H   0  0
   -3.3810    3.4780  -10.0200 H   0  0
   -3.3320   -1.2420   -7.2070 H   0  0
   -3.3160    2.6520   -7.4670 H   0  0
   -5.3910   -0.7230   -8.1840 H   0  0
   -5.6700   -0.6520   -6.4630 H   0  0
   -5.1170    1.3280   -9.5140 H   0  0
   -1.7110    1.5230   -6.1740 H   0  0
   -4.7010   -1.2500   -4.7970 H   0  0
   -5.6110    3.6780   -9.7400 H   0  0
   -5.2950    3.9770   -8.0570 H   0  0
   -5.6620    3.1390   -6.2010 H   0  0
   -4.2340    2.1310   -5.9810 H   0  0
   -5.7680    1.6580   -5.2560 H   0  0
   -7.5240    3.7280   -7.7360 H   0  0
   -7.7790    2.9880   -9.2760 H   0  0
   -0.6110    2.4750   -2.6910 H   0  0
   -1.0700    3.2730   -4.1910 H   0  0
    0.1210    1.9760   -4.2150 H   0  0
   -5.2890   -1.2870   -2.4100 H   0  0
   -4.4100   -0.2340   -1.3070 H   0  0
   -3.7110   -1.7760   -1.7990 H   0  0
   -8.7970    2.0060   -6.7560 H   0  0
   -0.9360   -0.6090   -1.6430 H   0  0
   -2.3320   -0.7030   -0.5430 H   0  0
   -8.2910   -2.1410  -10.2290 H   0  0
   -9.1190   -0.8520  -11.1190 H   0  0
   -9.8850   -1.5760   -9.6950 H   0  0
   -1.3910    1.1680    0.8240 H   0  0
    0.0180    1.2620   -0.2830 H   0  0
    1.4550    0.7830    1.3480 H   0  0
    1.7210   -1.8910    1.7270 H   0  0
    2.6250   -0.7170    2.6290 H   0  0
   -0.2870    1.8400    2.5740 H   0  0
   -0.9880    0.3360    3.1170 H   0  0
   -0.0390   -1.7830    3.5350 H   0  0
    1.6640    1.4510    4.0410 H   0  0
    0.1950    1.5410    4.9610 H   0  0
    0.8650   -3.3750    4.9400 H   0  0
    1.6040   -3.6430    3.3950 H   0  0
    3.1600   -0.0920    4.8160 H   0  0
   -1.0120   -0.9530    5.4410 H   0  0
   -0.1230   -0.0260    6.6470 H   0  0
    0.2130   -1.7400    6.4340 H   0  0
    3.1860   -3.8400    5.3340 H   0  0
    2.2150   -2.1680    6.8110 H   0  0
    2.2210    1.6150    6.3300 H   0  0
    1.7190    0.3910    7.4470 H   0  0
    3.9690   -3.3110    3.3480 H   0  0
    4.9960   -1.2770    5.9820 H   0  0
    3.7740    1.3940    8.2850 H   0  0
    5.3910   -3.5330    6.5740 H   0  0
    4.1660   -3.5160    7.8150 H   0  0
    5.6370    1.3510    7.0470 H   0  0
    6.3930   -0.3930    7.7480 H   0  0
    3.6090   -2.1470    9.4140 H   0  0
    2.2910   -1.3180    8.5880 H   0  0
    3.2310   -0.4750    9.8170 H   0  0
    6.9450   -2.6040    8.0550 H   0  0
    5.7620   -2.8610    9.3070 H   0  0
    5.1880   -0.8150   10.4320 H   0  0
    7.9900    0.1970   10.3220 H   0  0
    7.8580   -1.2790    9.5310 H   0  0
    4.6500    1.4470    9.9510 H   0  0
    6.0310    1.6370    8.8730 H   0  0
    6.2640    1.6840   10.6190 H   0  0
    6.7230   -2.2850   11.5100 H   0  0
    6.9020   -0.7810   12.4100 H   0  0
    9.6720   -2.7010   13.5800 H   0  0
  1  2  2  0
  2  3  1  0
  2  4  1  0
  3  5  2  0
  4  6  1  0
  5  7  1  0
  5  8  1  0
  7  9  2  0
  8 10  1  0
  9 11  1  0
  9 12  1  0
 11 13  1  0
 11 14  1  0
 12 15  1  0
 13 16  2  0
 13 17  1  0
 14 18  1  0
 15 19  1  0
 16 20  1  0
 17 21  2  0
 18 22  1  0
 18 23  1  0
 19 24  1  0
 20 25  2  0
 20 26  1  0
 21 27  1  0
 22 28  1  0
 22 29  1  0
 25 30  1  0
 29 31  3  0
 30 32  1  0
 31 33  1  0
 32 34  1  0
 34 35  1  0
 36 35  1  0
 36 37  1  0
 36 38  1  0
 39 37  1  0
 38 40  1  0
 39 41  1  0
 39 42  1  0
 41 43  1  0
 41 44  1  0
 42 45  1  0
 46 43  1  0
 43 47  1  0
 45 48  1  0
 46 49  1  0
 47 50  1  0
 49 51  1  0
 49 52  1  0
 50 53  1  0
 51 54  1  0
 51 55  1  0
 52 56  1  0
 54 57  1  0
 57 58  1  0
 57 59  1  0
 58 60  1  0
 60 61  1  0
 61 62  2  0
 61 63  1  0
  6  7  1  0
 12 10  1  0
 15 18  1  0
 21 25  1  0
 22 24  1  0
 40 41  1  0
 45 46  1  0
 50 51  1  0
 54 56  1  0
  3 64  1  0
  4 65  1  0
  4 66  1  0
  6 67  1  0
  6 68  1  0
  8 69  1  0
  8 70  1  0
 10 71  1  0
 10 72  1  0
 11 73  1  0
 12 74  1  0
 14 75  1  0
 14 76  1  0
 15 77  1  0
 16 78  1  0
 17 79  1  0
 19 80  1  0
 19 81  1  0
 23 82  1  0
 23 83  1  0
 23 84  1  0
 24 85  1  0
 24 86  1  0
 26 87  1  0
 26 88  1  0
 26 89  1  0
 27 90  1  0
 27 91  1  0
 27 92  1  0
 28 93  1  0
 32 94  1  0
 32 95  1  0
 33 96  1  0
 33 97  1  0
 33 98  1  0
 34 99  1  0
 34100  1  0
 36101  1  0
 37102  1  0
 37103  1  0
 38104  1  0
 38105  1  0
 39106  1  0
 40107  1  0
 40108  1  0
 42109  1  0
 42110  1  0
 43111  1  0
 44112  1  0
 44113  1  0
 44114  1  0
 45115  1  0
 46116  1  0
 47117  1  0
 47118  1  0
 48119  1  0
 49120  1  0
 50121  1  0
 52122  1  0
 52123  1  0
 53124  1  0
 54125  1  0
 55126  1  0
 55127  1  0
 55128  1  0
 56129  1  0
 56130  1  0
 57131  1  0
 58132  1  0
 58133  1  0
 59134  1  0
 59135  1  0
 59136  1  0
 60137  1  0
 60138  1  0
 63139  1  0
M  END
> <Name>
CHEMBL374732

> <IC50 nM>
4.9

> <Molecule_ChEMBL_ID>
CHEMBL374732

> <Smiles>
CC#C[C@]1(O)CC[C@H]2[C@@H]3CCC4=CC(=O)CCC4=C3[C@@H](c3cc(C)c(OCCO[C@H]4CC[C@@]5(C)[C@@H](C4)C[C@@H](O)[C@@H]4[C@@H]5C[C@H](O)[C@]5(C)[C@@H]([C@H](C)CCC(=O)O)CC[C@@H]45)c(C)c3)C[C@@]21C

$$$$
CHEMBL219084
  SciTegic08162514323D

 55 57  0  0  1  0            999 V2000
   -0.6950   -2.9880    3.0470 F   0  0
   -1.3340   -2.6800    1.8730 C   0  0
   -1.2010   -3.7230    0.9940 F   0  0
   -2.6620   -2.4570    2.1230 F   0  0
   -0.7110   -1.4220    1.2700 C   0  0  1  0  0  0
   -1.7520   -0.5550    0.8850 O   0  0
    0.0840   -0.7480    2.3890 C   0  0
    0.1450   -1.7210    0.0370 C   0  0
    1.2250    0.0060    1.8460 N   0  0
   -0.6540   -1.6600   -1.2640 C   0  0
    2.3630   -0.6740    1.4510 C   0  0
    1.1430    1.3830    1.7400 C   0  0
   -0.7340   -0.1910   -1.2750 C   0  0
    0.1310   -2.1910   -2.4650 C   0  0
   -2.0390   -2.2990   -1.1370 C   0  0
    3.4380   -0.0250    0.9470 C   0  0
    2.1640    2.1190    1.2480 C   0  0
   -2.0080    0.4320   -1.3890 C   0  0
    0.4530    0.5660   -1.1740 C   0  0
    3.4040    1.4450    0.8110 C   0  0
    4.6600   -0.8010    0.5260 C   0  0
    2.0370    3.6190    1.1470 C   0  0
   -3.2150   -0.1210   -1.4900 O   0  0
   -2.0630    1.8340   -1.4020 C   0  0
    0.3850    1.9730   -1.1840 C   0  0
    4.3440    2.0660    0.3650 O   0  0
   -4.2340    0.8890   -1.5720 C   0  0
   -0.8730    2.6000   -1.2970 C   0  0
   -3.5000    2.2620   -1.5370 C   0  0
   -1.9080    0.0530    1.6230 H   0  0
   -0.5550   -0.0720    2.9590 H   0  0
    0.4490   -1.4860    3.1020 H   0  0
    0.6450   -2.6840    0.1390 H   0  0
    1.0040   -1.0490   -0.0080 H   0  0
    2.4180   -1.7480    1.5390 H   0  0
    0.2480    1.9060    2.0510 H   0  0
    1.1290   -1.7560   -2.5210 H   0  0
   -0.3870   -1.9610   -3.3940 H   0  0
    0.2420   -3.2730   -2.4040 H   0  0
   -2.4920   -2.4860   -2.1090 H   0  0
   -2.7110   -1.6500   -0.5760 H   0  0
   -1.9770   -3.2500   -0.6070 H   0  0
    1.4120    0.0740   -1.0880 H   0  0
    4.5610   -1.8770    0.6620 H   0  0
    5.5250   -0.4710    1.1020 H   0  0
    4.8710   -0.6170   -0.5270 H   0  0
    0.9920    3.9100    1.2620 H   0  0
    2.6700    4.0960    1.8950 H   0  0
    2.3690    3.9530    0.1640 H   0  0
    1.2850    2.5630   -1.1030 H   0  0
   -4.9100    0.7710   -0.7360 H   0  0
   -4.7930    0.7500   -2.4880 H   0  0
   -0.9320    3.6780   -1.3070 H   0  0
   -3.6480    2.8240   -2.4490 H   0  0
   -3.8070    2.8650   -0.6930 H   0  0
  1  2  1  0
  2  3  1  0
  2  4  1  0
  2  5  1  0
  5  6  1  0
  5  7  1  0
  5  8  1  0
  7  9  1  0
  8 10  1  0
  9 11  1  0
  9 12  1  0
 10 13  1  0
 10 14  1  0
 10 15  1  0
 11 16  2  0
 12 17  2  0
 13 18  2  0
 13 19  1  0
 16 20  1  0
 16 21  1  0
 17 22  1  0
 18 23  1  0
 18 24  1  0
 19 25  2  0
 20 26  2  0
 23 27  1  0
 24 28  2  0
 24 29  1  0
 17 20  1  0
 25 28  1  0
 27 29  1  0
  6 30  1  0
  7 31  1  0
  7 32  1  0
  8 33  1  0
  8 34  1  0
 11 35  1  0
 12 36  1  0
 14 37  1  0
 14 38  1  0
 14 39  1  0
 15 40  1  0
 15 41  1  0
 15 42  1  0
 19 43  1  0
 21 44  1  0
 21 45  1  0
 21 46  1  0
 22 47  1  0
 22 48  1  0
 22 49  1  0
 25 50  1  0
 27 51  1  0
 27 52  1  0
 28 53  1  0
 29 54  1  0
 29 55  1  0
M  END
> <Name>
CHEMBL219084

> <IC50 nM>
34

> <Molecule_ChEMBL_ID>
CHEMBL219084

> <Smiles>
Cc1cn(CC(O)(CC(C)(C)c2cccc3c2OCC3)C(F)(F)F)cc(C)c1=O

$$$$
CHEMBL221492
  SciTegic08162514323D

 69 73  0  0  1  0            999 V2000
   -6.1640   -2.6800   -0.0180 O   0  0
   -4.9690   -2.5270   -0.0760 C   0  0
   -4.1350   -2.6370    1.1290 C   0  0
   -4.2730   -2.2190   -1.3770 C   0  0
   -2.8570   -2.1970    1.1680 C   0  0
   -3.1000   -1.2400   -1.2110 C   0  0
   -2.2250   -1.4960    0.0120 C   0  0
   -2.0570   -2.4180    2.4300 C   0  0
   -0.9300   -1.0800    0.0660 C   0  0
   -0.5760   -2.5920    2.1000 C   0  0
   -0.2790   -0.2520   -1.0490 C   0  0  1  0  0  0
   -0.0550   -1.4020    1.2790 C   0  0  1  0  0  0
   -0.5390    1.2010   -0.8360 C   0  0
    1.2250   -0.5490   -1.2640 C   0  0
    1.4020   -1.7050    0.8940 C   0  0  1  0  0  0
   -1.2300    1.6310    0.3100 C   0  0
   -0.0920    2.1410   -1.7790 C   0  0
    2.0290   -0.5860    0.0490 C   0  0  1  0  0  0
    2.4100   -1.8500    2.0410 C   0  0
   -1.4750    3.0020    0.5120 C   0  0
   -0.3360    3.5120   -1.5800 C   0  0
    3.5100   -1.0470   -0.0080 C   0  0  2  0  0  0
    1.9410    0.7560    0.7990 C   0  0
    3.7700   -1.4350    1.4630 C   0  0
   -1.0270    3.9470   -0.4340 C   0  0
   -2.2070    3.4450    1.7280 C   0  0
    0.1430    4.4960   -2.5860 C   0  0
    4.3690    0.0120   -0.4000 O   0  0
    3.7440   -2.1840   -0.9120 C   0  0
   -1.2580    5.2330   -0.2440 O   0  0
    3.9470   -3.1020   -1.6410 C   0  0
   -0.2110    6.0240    0.3010 C   0  0
    4.1950   -4.2250   -2.5410 C   0  0
   -4.5660   -3.0920    2.0060 H   0  0
   -4.9920   -1.8220   -2.0960 H   0  0
   -3.9080   -3.1560   -1.7950 H   0  0
   -2.5290   -1.3120   -2.1330 H   0  0
   -3.4800   -0.2210   -1.1560 H   0  0
   -2.1910   -1.5640    3.0920 H   0  0
   -2.4160   -3.2970    2.9670 H   0  0
   -0.0100   -2.6950    3.0250 H   0  0
   -0.4360   -3.5210    1.5490 H   0  0
   -0.7300   -0.4800   -2.0080 H   0  0
   -0.0700   -0.5210    1.9280 H   0  0
    1.2970   -1.5160   -1.7640 H   0  0
    1.6680    0.1700   -1.9510 H   0  0
    1.4080   -2.6270    0.3260 H   0  0
   -1.5740    0.9100    1.0370 H   0  0
    0.4410    1.8110   -2.6600 H   0  0
    2.4240   -2.8590    2.4220 H   0  0
    2.1450   -1.1990    2.8630 H   0  0
    0.9450    0.9340    1.2030 H   0  0
    2.1820    1.5840    0.1330 H   0  0
    2.6470    0.7790    1.6290 H   0  0
    4.1410   -0.5940    2.0310 H   0  0
    4.5100   -2.2190    1.5720 H   0  0
   -2.3520    4.5240    1.7970 H   0  0
   -1.6640    3.1250    2.6170 H   0  0
   -3.1910    2.9750    1.7500 H   0  0
   -0.4800    5.3870   -2.6740 H   0  0
    0.1860    4.0220   -3.5670 H   0  0
    1.1520    4.8200   -2.3280 H   0  0
    3.9200    0.4980   -1.1090 H   0  0
   -0.0080    5.6720    1.3120 H   0  0
    0.6290    6.0040   -0.3950 H   0  0
   -0.5620    7.0530    0.3710 H   0  0
    5.2640   -4.4240   -2.6110 H   0  0
    3.8150   -4.0040   -3.5370 H   0  0
    3.6970   -5.1230   -2.1700 H   0  0
  1  2  2  0
  2  3  1  0
  2  4  1  0
  3  5  2  0
  4  6  1  0
  5  7  1  0
  5  8  1  0
  7  9  2  0
  8 10  1  0
  9 11  1  0
  9 12  1  0
 11 13  1  0
 11 14  1  0
 12 15  1  0
 13 16  2  0
 13 17  1  0
 14 18  1  0
 15 19  1  0
 16 20  1  0
 17 21  2  0
 18 22  1  0
 18 23  1  0
 19 24  1  0
 20 25  2  0
 20 26  1  0
 21 27  1  0
 22 28  1  0
 22 29  1  0
 25 30  1  0
 29 31  3  0
 30 32  1  0
 31 33  1  0
  6  7  1  0
 12 10  1  0
 15 18  1  0
 21 25  1  0
 22 24  1  0
  3 34  1  0
  4 35  1  0
  4 36  1  0
  6 37  1  0
  6 38  1  0
  8 39  1  0
  8 40  1  0
 10 41  1  0
 10 42  1  0
 11 43  1  0
 12 44  1  0
 14 45  1  0
 14 46  1  0
 15 47  1  0
 16 48  1  0
 17 49  1  0
 19 50  1  0
 19 51  1  0
 23 52  1  0
 23 53  1  0
 23 54  1  0
 24 55  1  0
 24 56  1  0
 26 57  1  0
 26 58  1  0
 26 59  1  0
 27 60  1  0
 27 61  1  0
 27 62  1  0
 28 63  1  0
 32 64  1  0
 32 65  1  0
 32 66  1  0
 33 67  1  0
 33 68  1  0
 33 69  1  0
M  END
> <Name>
CHEMBL221492

> <IC50 nM>
0.4

> <Molecule_ChEMBL_ID>
CHEMBL221492

> <Smiles>
CC#C[C@]1(O)CC[C@H]2[C@@H]3CCC4=CC(=O)CCC4=C3[C@@H](c3cc(C)c(OC)c(C)c3)C[C@@]21C

$$$$
CHEMBL218214
  SciTegic08162514323D

 63 67  0  0  1  0            999 V2000
   -1.2420    6.0430   -0.2660 S   0  0
   -0.9490    4.3980   -0.5060 C   0  0
   -2.6520    6.0310    0.7710 C   0  0
   -0.2130    3.9470   -1.6190 C   0  0
   -1.4340    3.4340    0.4000 C   0  0
    0.0350    2.5800   -1.8240 C   0  0
   -1.1930    2.0640    0.2050 C   0  0
   -0.4570    1.6350   -0.9100 C   0  0
   -0.1970    0.1820   -1.1230 C   0  0  2  0  0  0
   -0.8480   -0.6450   -0.0100 C   0  0
    1.3070   -0.1150   -1.3400 C   0  0
   -2.1430   -1.0630   -0.0640 C   0  0
    0.0270   -0.9670    1.2030 C   0  0  2  0  0  0
    2.1110   -0.1520   -0.0270 C   0  0  1  0  0  0
   -2.7750   -1.7620    1.0920 C   0  0
   -3.0180   -0.8050   -1.2870 C   0  0
    1.4840   -1.2700    0.8200 C   0  0  1  0  0  0
   -0.4940   -2.1580    2.0250 C   0  0
    3.5920   -0.6130   -0.0820 C   0  0  2  0  0  0
    2.0230    1.1910    0.7230 C   0  0
   -4.0530   -2.2030    1.0530 C   0  0
   -1.9750   -1.9820    2.3540 C   0  0
   -4.1910   -1.7830   -1.4510 C   0  0
    2.4920   -1.4160    1.9670 C   0  0
    4.4510    0.4450   -0.4770 O   0  0
    3.8260   -1.7500   -0.9880 C   0  0
    3.8520   -1.0020    1.3870 C   0  0
   -4.8870   -2.0920   -0.1520 C   0  0
    4.0290   -2.6660   -1.7170 C   0  0
   -6.0820   -2.2440   -0.0940 O   0  0
    4.2770   -3.7910   -2.6150 C   0  0
   -3.0960    7.0250    0.7910 H   0  0
   -3.3480    5.2660    0.4300 H   0  0
   -2.3540    5.7790    1.7890 H   0  0
    0.1700    4.6680   -2.3280 H   0  0
   -2.0000    3.7540    1.2620 H   0  0
    0.6020    2.2640   -2.6880 H   0  0
   -1.5760    1.3460    0.9160 H   0  0
   -0.6480   -0.0450   -2.0840 H   0  0
    1.3790   -1.0820   -1.8380 H   0  0
    1.7500    0.6030   -2.0270 H   0  0
    0.0120   -0.0880    1.8540 H   0  0
   -2.4470   -0.8790   -2.2090 H   0  0
   -3.3980    0.2130   -1.2320 H   0  0
    1.4900   -2.1910    0.2500 H   0  0
    0.0720   -2.2600    2.9510 H   0  0
   -0.3530   -3.0880    1.4730 H   0  0
    1.0020    1.4200    1.0290 H   0  0
    2.3730    2.0060    0.0920 H   0  0
    2.6450    1.1720    1.6170 H   0  0
   -4.4840   -2.6580    1.9300 H   0  0
   -2.1110   -1.1310    3.0160 H   0  0
   -2.3360   -2.8610    2.8910 H   0  0
   -4.9100   -1.3870   -2.1720 H   0  0
   -3.8260   -2.7230   -1.8710 H   0  0
    2.5060   -2.4260    2.3460 H   0  0
    2.2270   -0.7660    2.7870 H   0  0
    4.1190    0.7850   -1.3220 H   0  0
    4.2230   -0.1580    1.9550 H   0  0
    4.5920   -1.7850    1.4960 H   0  0
    5.3460   -3.9880   -2.6880 H   0  0
    3.8970   -3.5680   -3.6130 H   0  0
    3.7790   -4.6880   -2.2460 H   0  0
  1  2  1  0
  1  3  1  0
  2  4  2  0
  2  5  1  0
  4  6  1  0
  5  7  2  0
  6  8  2  0
  9  8  1  0
  9 10  1  0
  9 11  1  0
 10 12  2  0
 10 13  1  0
 11 14  1  0
 12 15  1  0
 12 16  1  0
 13 17  1  0
 13 18  1  0
 14 19  1  0
 14 20  1  0
 15 21  2  0
 15 22  1  0
 16 23  1  0
 17 24  1  0
 19 25  1  0
 19 26  1  0
 19 27  1  0
 21 28  1  0
 26 29  3  0
 28 30  2  0
 29 31  1  0
  7  8  1  0
 14 17  1  0
 18 22  1  0
 23 28  1  0
 24 27  1  0
  3 32  1  0
  3 33  1  0
  3 34  1  0
  4 35  1  0
  5 36  1  0
  6 37  1  0
  7 38  1  0
  9 39  1  0
 11 40  1  0
 11 41  1  0
 13 42  1  0
 16 43  1  0
 16 44  1  0
 17 45  1  0
 18 46  1  0
 18 47  1  0
 20 48  1  0
 20 49  1  0
 20 50  1  0
 21 51  1  0
 22 52  1  0
 22 53  1  0
 23 54  1  0
 23 55  1  0
 24 56  1  0
 24 57  1  0
 25 58  1  0
 27 59  1  0
 27 60  1  0
 31 61  1  0
 31 62  1  0
 31 63  1  0
M  END
> <Name>
CHEMBL218214

> <IC50 nM>
0.6

> <Molecule_ChEMBL_ID>
CHEMBL218214

> <Smiles>
CC#C[C@]1(O)CC[C@H]2[C@@H]3CCC4=CC(=O)CCC4=C3[C@@H](c3ccc(SC)cc3)C[C@@]21C

$$$$
CHEMBL223675
  SciTegic08162514323D

 70 74  0  0  1  0            999 V2000
    2.9360    1.7170    2.7770 Cl  0  0
    1.6740    0.5940    2.4650 C   0  0
    0.9840   -0.0310    3.5250 C   0  0
    1.3280    0.3010    1.1310 C   0  0
    1.3010    0.2320    4.7790 O   0  0
   -0.0470   -0.9470    3.2420 C   0  0
    0.2970   -0.6130    0.8530 C   0  0
    1.7970   -0.8320    5.5800 C   0  0
   -0.3910   -1.2360    1.9100 C   0  0
   -0.7850   -1.6130    4.3500 C   0  0
   -0.0640   -0.9220   -0.5530 C   0  0  2  0  0  0
    2.8590   -0.3070    6.5100 C   0  0
    0.7270   -0.0310   -1.5080 C   0  0
   -1.6020   -0.8610   -0.7830 C   0  0
    3.3540   -1.1290    7.4470 C   0  0
    1.9300   -0.4080   -2.0160 C   0  0
    0.1110    1.3220   -1.8630 C   0  0  2  0  0  0
   -2.1190    0.5860   -0.9060 C   0  0  1  0  0  0
    2.5630    0.3650   -3.1080 C   0  0
    2.6950   -1.6190   -1.5160 C   0  0
   -1.4080    1.2050   -2.1230 C   0  0  1  0  0  0
    0.8500    2.1310   -2.9610 C   0  0
   -3.6190    0.8440   -1.2150 C   0  0  2  0  0  0
   -1.7700    1.3910    0.3570 C   0  0
    3.8850    0.2750   -3.3650 C   0  0
    1.6640    1.2640   -3.9160 C   0  0
    4.2090   -1.3500   -1.3990 C   0  0
   -2.1540    2.5350   -2.2560 C   0  0
   -4.4020    0.8850   -0.0290 O   0  0
   -4.2290   -0.1720   -2.0900 C   0  0
   -3.6130    2.2310   -1.8930 C   0  0
    4.7830   -0.5820   -2.5690 C   0  0
   -4.7480   -0.9880   -2.7850 C   0  0
    5.9550   -0.6640   -2.8500 O   0  0
   -5.3930   -1.9840   -3.6350 C   0  0
    1.8520    0.7770    0.3120 H   0  0
    2.2250   -1.5860    4.9180 H   0  0
    0.9690   -1.2400    6.1560 H   0  0
   -1.1840   -1.9390    1.6950 H   0  0
   -1.7500   -2.0270    4.0600 H   0  0
   -0.9550   -0.8980    5.1540 H   0  0
   -0.1800   -2.4280    4.7480 H   0  0
    0.2130   -1.9590   -0.7130 H   0  0
    3.2750    0.6900    6.5020 H   0  0
   -1.8480   -1.4390   -1.6900 H   0  0
   -2.1270   -1.3690    0.0330 H   0  0
    4.1110   -0.8980    8.1800 H   0  0
    2.9360   -2.1270    7.4550 H   0  0
    0.2270    1.9360   -0.9710 H   0  0
    2.3420   -1.9370   -0.5350 H   0  0
    2.5180   -2.4470   -2.1970 H   0  0
   -1.5740    0.6110   -3.0180 H   0  0
    1.5370    2.8220   -2.4730 H   0  0
    0.1620    2.7600   -3.5260 H   0  0
   -2.1090    2.4240    0.2890 H   0  0
   -0.6910    1.4040    0.5210 H   0  0
   -2.2320    0.9470    1.2380 H   0  0
    4.3090    0.8460   -4.1780 H   0  0
    1.0000    0.6470   -4.5260 H   0  0
    2.2400    1.8890   -4.6000 H   0  0
    4.4080   -0.7790   -0.4880 H   0  0
    4.7380   -2.2950   -1.2850 H   0  0
   -2.0680    2.9590   -3.2440 H   0  0
   -1.7520    3.2600   -1.5610 H   0  0
   -5.2680    1.2520   -0.2700 H   0  0
   -3.9800    3.0100   -1.2400 H   0  0
   -4.2360    2.2720   -2.7790 H   0  0
   -4.7480   -2.8590   -3.7330 H   0  0
   -5.5760   -1.5680   -4.6230 H   0  0
   -6.3420   -2.2950   -3.2010 H   0  0
  1  2  1  0
  2  3  2  0
  2  4  1  0
  3  5  1  0
  3  6  1  0
  4  7  2  0
  5  8  1  0
  6  9  2  0
  6 10  1  0
 11  7  1  0
  8 12  1  0
 11 13  1  0
 11 14  1  0
 12 15  2  0
 13 16  2  0
 13 17  1  0
 14 18  1  0
 16 19  1  0
 16 20  1  0
 17 21  1  0
 17 22  1  0
 18 23  1  0
 18 24  1  0
 19 25  2  0
 19 26  1  0
 20 27  1  0
 21 28  1  0
 23 29  1  0
 23 30  1  0
 23 31  1  0
 25 32  1  0
 30 33  3  0
 32 34  2  0
 33 35  1  0
  7  9  1  0
 18 21  1  0
 22 26  1  0
 27 32  1  0
 28 31  1  0
  4 36  1  0
  8 37  1  0
  8 38  1  0
  9 39  1  0
 10 40  1  0
 10 41  1  0
 10 42  1  0
 11 43  1  0
 12 44  1  0
 14 45  1  0
 14 46  1  0
 15 47  1  0
 15 48  1  0
 17 49  1  0
 20 50  1  0
 20 51  1  0
 21 52  1  0
 22 53  1  0
 22 54  1  0
 24 55  1  0
 24 56  1  0
 24 57  1  0
 25 58  1  0
 26 59  1  0
 26 60  1  0
 27 61  1  0
 27 62  1  0
 28 63  1  0
 28 64  1  0
 29 65  1  0
 31 66  1  0
 31 67  1  0
 35 68  1  0
 35 69  1  0
 35 70  1  0
M  END
> <Name>
CHEMBL223675

> <IC50 nM>
20.9

> <Molecule_ChEMBL_ID>
CHEMBL223675

> <Smiles>
C=CCOc1c(C)cc([C@H]2C[C@@]3(C)[C@@H](CC[C@@]3(O)C#CC)[C@@H]3CCC4=CC(=O)CCC4=C32)cc1Cl

$$$$
CHEMBL194812
  SciTegic08162514323D

 53 55  0  0  1  0            999 V2000
   -0.0640   -5.0140    0.7660 F   0  0
    0.7930   -4.0800    1.1660 C   0  0
    0.3950   -2.7320    1.2150 C   0  0
    2.1000   -4.4390    1.5390 C   0  0
    1.3030   -1.7440    1.6390 C   0  0
    3.0060   -3.4510    1.9610 C   0  0
    2.6130   -2.1030    2.0120 C   0  0
    0.8710   -0.3220    1.6850 C   0  0
    3.4710   -1.1850    2.4100 O   0  0
    1.8170    0.1210    0.5700 C   0  0
    1.2030    0.3220    3.0330 C   0  0
   -0.6030   -0.1680    1.3070 C   0  0
    4.7480   -1.6150    2.8570 C   0  0
    1.2270   -0.0900   -0.8240 C   0  0  1  0  0  0
    0.6780   -1.3870   -0.8790 O   0  0
    0.1230    0.9260   -0.9550 C   0  0
    2.2700    0.0370   -1.9340 C   0  0
    0.1450    1.9550   -0.3200 O   0  0
   -0.9100    0.6660   -1.8110 N   0  0
    1.6580   -0.0860   -3.1540 F   0  0
    3.2090   -0.9530   -1.7930 F   0  0
    2.8810    1.2600   -1.8500 F   0  0
   -1.9060    1.5530   -1.9490 C   0  0
   -3.2500    1.1130   -2.0630 C   0  0
   -1.6310    2.9450   -1.9830 C   0  0
   -4.3090    2.0430   -2.2110 C   0  0
   -2.6890    3.8730   -2.1270 C   0  0
   -4.0160    3.3930   -2.2400 C   0  0
   -5.8120    1.9240   -2.3580 C   0  0
   -5.2320    4.1660   -2.3950 C   0  0
   -6.2770    3.3050   -2.4650 O   0  0
   -5.2710    5.3730   -2.4490 O   0  0
   -0.6090   -2.4570    0.9280 H   0  0
    2.4100   -5.4730    1.5040 H   0  0
    4.0100   -3.7320    2.2480 H   0  0
    2.7810   -0.3810    0.6600 H   0  0
    2.1150    1.1600    0.7090 H   0  0
    0.9450   -0.3280    3.8690 H   0  0
    0.6560    1.2580    3.1560 H   0  0
    2.2680    0.5470    3.1000 H   0  0
   -1.2640   -0.6070    2.0550 H   0  0
   -0.8080   -0.6560    0.3530 H   0  0
   -0.8670    0.8850    1.2050 H   0  0
    5.3440   -0.7340    3.0920 H   0  0
    4.6040   -2.3300    3.6680 H   0  0
    5.2380   -2.1390    2.0350 H   0  0
    0.4920   -1.5800   -1.8110 H   0  0
   -0.9240   -0.1850   -2.3340 H   0  0
   -3.4900    0.0590   -2.0390 H   0  0
   -0.6170    3.3130   -1.8990 H   0  0
   -2.4820    4.9340   -2.1520 H   0  0
   -6.2600    1.4590   -1.4920 H   0  0
   -6.0820    1.3830   -3.2540 H   0  0
  1  2  1  0
  2  3  2  0
  2  4  1  0
  3  5  1  0
  4  6  2  0
  5  7  2  0
  5  8  1  0
  7  9  1  0
  8 10  1  0
  8 11  1  0
  8 12  1  0
  9 13  1  0
 10 14  1  0
 14 15  1  0
 14 16  1  0
 14 17  1  0
 16 18  2  0
 16 19  1  0
 17 20  1  0
 17 21  1  0
 17 22  1  0
 19 23  1  0
 23 24  2  0
 23 25  1  0
 24 26  1  0
 25 27  2  0
 26 28  2  0
 26 29  1  0
 28 30  1  0
 29 31  1  0
 30 32  2  0
  6  7  1  0
 27 28  1  0
 30 31  1  0
  3 33  1  0
  4 34  1  0
  6 35  1  0
 10 36  1  0
 10 37  1  0
 11 38  1  0
 11 39  1  0
 11 40  1  0
 12 41  1  0
 12 42  1  0
 12 43  1  0
 13 44  1  0
 13 45  1  0
 13 46  1  0
 15 47  1  0
 19 48  1  0
 24 49  1  0
 25 50  1  0
 27 51  1  0
 29 52  1  0
 29 53  1  0
M  END
> <Name>
CHEMBL194812

> <IC50 nM>
230

> <Molecule_ChEMBL_ID>
CHEMBL194812

> <Smiles>
COc1ccc(F)cc1C(C)(C)CC(O)(C(=O)Nc1ccc2c(c1)COC2=O)C(F)(F)F

$$$$
CHEMBL382785
  SciTegic08162514323D

 59 62  0  0  0  0            999 V2000
   -1.2260   -0.8160    0.8160 S   0  0
   -1.6000   -0.3570   -0.8980 C   0  0
   -0.9180   -2.5880    0.5680 C   0  0
   -1.9060    1.1190   -0.9690 C   0  0
   -0.5660   -3.2730    1.8890 C   0  0
   -0.8200    2.1430   -0.9180 C   0  0
   -3.1910    1.5120   -1.0800 C   0  0
   -0.3050   -4.7250    1.6990 C   0  0
   -1.1540    3.5260   -0.9880 C   0  0
    0.5350    1.7420   -0.8010 C   0  0
   -3.5940    2.9750   -1.1560 C   0  0
    0.9960   -5.1760    1.4140 C   0  0
   -1.3590   -5.6480    1.8050 C   0  0
   -2.4450    3.9280   -1.1030 N   0  0
   -0.1130    4.4900   -0.9390 C   0  0
    1.5690    2.7110   -0.7500 C   0  0
   -4.3460    3.1940   -2.4710 C   0  0
   -4.5270    3.2740    0.0200 C   0  0
    1.2420   -6.5470    1.2360 C   0  0
   -1.1130   -7.0210    1.6250 C   0  0
    1.2360    4.0840   -0.8200 C   0  0
    2.9610    2.2950   -0.6290 C   0  0
    0.1880   -7.4710    1.3420 C   0  0
    3.3480    1.3650    0.3590 C   0  0
    3.9220    2.8320   -1.5060 C   0  0
    2.4670    0.8480    1.1930 O   0  0
    4.6970    0.9790    0.4570 C   0  0
    5.2680    2.4420   -1.4000 C   0  0
    2.8830   -0.2280    2.0220 C   0  0
    5.6550    1.5160   -0.4180 C   0  0
   -0.7420   -0.5880   -1.5310 H   0  0
   -2.4570   -0.9320   -1.2500 H   0  0
   -0.1150   -2.7170   -0.1580 H   0  0
   -1.7950   -3.0510    0.1150 H   0  0
   -1.3650   -3.1410    2.6170 H   0  0
    0.3050   -2.8050    2.3460 H   0  0
   -3.9690    0.7620   -1.1150 H   0  0
    0.7870    0.6920   -0.7480 H   0  0
    1.8110   -4.4710    1.3320 H   0  0
   -2.3630   -5.3110    2.0220 H   0  0
   -2.6600    4.9040   -1.1560 H   0  0
   -0.3360    5.5470   -0.9900 H   0  0
   -3.7170    2.9900   -3.3380 H   0  0
   -4.6970    4.2230   -2.5490 H   0  0
   -5.2150    2.5390   -2.5310 H   0  0
   -4.0290    3.1310    0.9790 H   0  0
   -5.3980    2.6210   -0.0060 H   0  0
   -4.8810    4.3050   -0.0210 H   0  0
    2.2420   -6.8930    1.0180 H   0  0
   -1.9240   -7.7300    1.7050 H   0  0
    2.0080    4.8400   -0.7830 H   0  0
    0.3770   -8.5250    1.2030 H   0  0
    3.6410    3.5450   -2.2680 H   0  0
    5.0000    0.2680    1.2110 H   0  0
    6.0040    2.8540   -2.0740 H   0  0
    2.0280   -0.5530    2.6150 H   0  0
    3.3440   -0.9860    1.3890 H   0  0
    3.6430    0.1430    2.7070 H   0  0
    6.6900    1.2150   -0.3380 H   0  0
  1  2  1  0
  1  3  1  0
  2  4  1  0
  3  5  1  0
  4  6  1  0
  4  7  2  0
  5  8  1  0
  6  9  2  0
  6 10  1  0
  7 11  1  0
  8 12  2  0
  8 13  1  0
  9 14  1  0
  9 15  1  0
 10 16  2  0
 11 17  1  0
 11 18  1  0
 12 19  1  0
 13 20  2  0
 15 21  2  0
 16 22  1  0
 19 23  2  0
 22 24  2  0
 22 25  1  0
 24 26  1  0
 24 27  1  0
 25 28  2  0
 26 29  1  0
 27 30  2  0
 11 14  1  0
 16 21  1  0
 20 23  1  0
 28 30  1  0
  2 31  1  0
  2 32  1  0
  3 33  1  0
  3 34  1  0
  5 35  1  0
  5 36  1  0
  7 37  1  0
 10 38  1  0
 12 39  1  0
 13 40  1  0
 14 41  1  0
 15 42  1  0
 17 43  1  0
 17 44  1  0
 17 45  1  0
 18 46  1  0
 18 47  1  0
 18 48  1  0
 19 49  1  0
 20 50  1  0
 21 51  1  0
 23 52  1  0
 25 53  1  0
 27 54  1  0
 28 55  1  0
 29 56  1  0
 29 57  1  0
 29 58  1  0
 30 59  1  0
M  END
> <Name>
CHEMBL382785

> <IC50 nM>
194

> <Molecule_ChEMBL_ID>
CHEMBL382785

> <Smiles>
COc1ccccc1-c1ccc2c(c1)C(CSCCc1ccccc1)=CC(C)(C)N2

$$$$
CHEMBL563739
  SciTegic08162514323D

219229  0  0  1  0            999 V2000
   -5.6040    2.9710   12.8050 S   0  0
   -5.7360    1.3150   13.0530 C   0  0
   -6.9080    0.6210   12.9570 N   0  0
   -4.6840    0.5060   13.3770 N   0  0
   -8.1450    1.3380   12.6150 C   0  0
   -3.3420    1.0920   13.5220 C   0  0
   -9.3360    0.3790   12.5590 C   0  0
   -2.3130    0.0220   13.8830 C   0  0
  -10.8630    1.2660   12.1390 S   0  0
   -0.9020    0.5880   14.0470 C   0  0
  -12.0120   -0.1390   12.1620 C   0  0
    0.0570   -0.4820   14.2540 N   0  0
  -13.4010    0.3420   11.8340 C   0  0
    1.4060   -0.0190   13.9750 C   0  0
   -0.0370   -0.9940   15.6100 C   0  0
  -13.6270    1.5160   11.6580 O   0  0
  -14.5020   -0.6870   11.7270 C   0  0  2  0  0  0
    1.6860   -0.0550   12.4730 C   0  0
  -14.3990   -1.2750   10.4400 O   0  0
  -15.9260   -0.1210   11.9570 C   0  0  2  0  0  0
  -14.4440   -1.7770   12.8240 C   0  0  1  0  0  0
    3.1150    0.3610   12.1290 C   0  0
  -16.7500   -1.4080   12.0880 C   0  0  1  0  0  0
  -16.5650    0.7190   10.8360 C   0  0
  -15.8910    0.6540   13.2890 C   0  0
  -15.8870   -2.2830   12.9980 C   0  0
  -13.4550   -2.9180   12.5720 C   0  0
    3.3440    0.3150   10.6760 N   0  0
  -18.1900   -1.1250   12.5570 C   0  0  1  0  0  0
  -18.0470    1.0510   11.1370 C   0  0  1  0  0  0
    4.5680    0.6540   10.1780 C   0  0
  -18.9120   -0.1910   11.5410 C   0  0  1  0  0  0
  -18.9610   -2.4470   12.7460 C   0  0
  -18.0940    2.0630   12.1270 O   0  0
    5.4590    0.9920   10.9240 O   0  0
    4.7830    0.6000    8.6900 C   0  0
  -19.0430   -0.9100   10.3650 F   0  0
  -20.3680    0.1270   12.0350 C   0  0  2  0  0  0
  -20.4070   -2.2030   13.2010 C   0  0
    6.2150    0.9690    8.2930 C   0  0
  -21.1230   -1.1660   12.3560 C   0  0
  -21.1020    1.0160   11.0370 C   0  0
  -20.3620    0.9000   13.3620 C   0  0
    6.3890    0.9080    6.8360 N   0  0
  -22.3850   -1.3890   11.9280 C   0  0
  -22.3600    0.7680   10.6250 C   0  0
    7.6080    1.2050    6.2930 C   0  0
  -23.0920   -0.4100   11.0960 C   0  0
    8.5330    1.5160    7.0060 O   0  0
    7.7830    1.1470    4.8480 C   0  0
  -24.2540   -0.5720   10.8030 O   0  0
    8.9430    1.4200    4.1800 N   0  0
    6.7850    0.8030    3.9320 C   0  0
    8.6900    1.2500    2.8540 C   0  0
   10.2290    1.8200    4.7720 C   0  0
    7.3610    0.8670    2.6680 C   0  0
    6.6970    0.5880    1.3850 N   0  0
    5.3810    0.2210    1.3630 C   0  0
    4.7560    0.1250    2.3930 O   0  0
    4.7340   -0.0550    0.0860 C   0  0
    3.4300   -0.4280   -0.0760 N   0  0
    5.3570    0.0250   -1.1620 C   0  0
    3.2230   -0.5840   -1.4120 C   0  0
    2.4300   -0.6250    0.9840 C   0  0
    4.3980   -0.3110   -2.1130 C   0  0
    4.5900   -0.3670   -3.5700 N   0  0
    5.8070   -0.0680   -4.1110 C   0  0
    6.7330    0.2400   -3.4000 O   0  0
    5.9840   -0.1290   -5.5570 C   0  0
    7.1450    0.1450   -6.2250 N   0  0
    4.9840   -0.4730   -6.4730 C   0  0
    6.8910   -0.0250   -7.5530 C   0  0
    8.4300    0.5450   -5.6330 C   0  0
    5.5610   -0.4080   -7.7380 C   0  0
    4.8970   -0.6870   -9.0200 N   0  0
    3.5820   -1.0550   -9.0430 C   0  0
    2.9570   -1.1500   -8.0120 O   0  0
    2.9340   -1.3280  -10.3190 C   0  0
    1.6310   -1.7030  -10.4830 N   0  0
    3.5590   -1.2500  -11.5690 C   0  0
    1.4240   -1.8590  -11.8190 C   0  0
    0.6310   -1.9000   -9.4200 C   0  0
    2.6000   -1.5860  -12.5180 C   0  0
    2.7890   -1.6430  -13.9750 N   0  0
    4.0080   -1.3440  -14.5180 C   0  0
    4.9340   -1.0350  -13.8050 O   0  0
    4.1680   -1.4120  -16.0120 C   0  0
    5.5960   -1.0960  -16.4590 C   0  0
    5.7700   -1.1740  -17.9770 C   0  0
    7.1520   -0.8630  -18.3660 N   0  0
    7.4980   -0.8830  -19.6880 C   0  0
    6.6740   -1.1520  -20.5300 O   0  0
    8.8670   -0.5740  -20.0760 C   0  0
    9.3440   -0.5590  -21.3560 N   0  0
    9.8990   -0.2480  -19.1900 C   0  0
   10.6620   -0.2270  -21.2890 C   0  0
    8.5840   -0.8440  -22.5840 C   0  0
   11.0350   -0.0270  -19.9590 C   0  0
   12.3710    0.3420  -19.4670 N   0  0
   12.5860    0.5000  -18.1270 C   0  0
   11.6820    0.3400  -17.3400 O   0  0
   13.9120    0.8670  -17.6510 C   0  0
   14.2620    1.0570  -16.3440 N   0  0
   15.0300    1.0780  -18.4670 C   0  0
   15.5820    1.3850  -16.3240 C   0  0
   13.3830    0.9340  -15.1700 C   0  0
   16.0860    1.4060  -17.6270 C   0  0
   17.4670    1.7150  -18.0300 N   0  0
   17.8130    1.6950  -19.3520 C   0  0
   16.9890    1.4260  -20.1940 O   0  0
   19.1820    2.0040  -19.7410 C   0  0
   20.1800    2.3200  -18.8690 N   0  0
   19.6530    2.0200  -21.0220 N   0  0
   21.2870    2.5350  -19.6100 C   0  0
   20.9590    2.3480  -20.9480 C   0  0
   18.8930    1.7340  -22.2500 C   0  0
   -6.9240   -0.3670   13.1170 H   0  0
   -4.8300   -0.4730   13.5120 H   0  0
   -8.3190    2.1230   13.3500 H   0  0
   -8.0140    1.8460   11.6600 H   0  0
   -3.3710    1.8710   14.2830 H   0  0
   -3.0660    1.5920   12.5920 H   0  0
   -9.1600   -0.4100   11.8280 H   0  0
   -9.4650   -0.1330   13.5120 H   0  0
   -2.3220   -0.7850   13.1510 H   0  0
   -2.6170   -0.5180   14.7810 H   0  0
   -0.8610    1.2810   14.8870 H   0  0
   -0.6170    1.1680   13.1680 H   0  0
  -11.6960   -0.8830   11.4300 H   0  0
  -12.0040   -0.5980   13.1510 H   0  0
    2.1210   -0.6390   14.5160 H   0  0
    1.5290    0.9900   14.3650 H   0  0
   -1.0200   -1.3770   15.8790 H   0  0
    0.2150   -0.2010   16.3150 H   0  0
    0.6840   -1.8010   15.7440 H   0  0
    0.9650    0.5590   11.9320 H   0  0
    1.4610   -1.0390   12.0630 H   0  0
  -13.5040   -1.6410   10.3630 H   0  0
  -14.1550   -1.3140   13.7560 H   0  0
    3.8360   -0.2870   12.6250 H   0  0
    3.3200    1.3690   12.4900 H   0  0
  -16.8030   -1.8980   11.1250 H   0  0
  -16.5220    0.1640    9.8970 H   0  0
  -15.9870    1.6310   10.6700 H   0  0
  -16.8930    0.8560   13.6680 H   0  0
  -15.3830    1.6110   13.1640 H   0  0
  -15.3540    0.0880   14.0490 H   0  0
  -16.0040   -3.3280   12.7400 H   0  0
  -16.1940   -2.1780   14.0280 H   0  0
  -13.4490   -3.6150   13.4080 H   0  0
  -13.7110   -3.4570   11.6600 H   0  0
  -12.4420   -2.5290   12.4550 H   0  0
    2.6070    0.0350   10.0590 H   0  0
  -18.1510   -0.6230   13.5260 H   0  0
  -18.4630    1.5100   10.2380 H   0  0
  -18.9650   -3.0230   11.8190 H   0  0
  -18.4630   -3.0740   13.4880 H   0  0
  -18.4260    2.8670   11.6970 H   0  0
    4.6250   -0.4160    8.3300 H   0  0
    4.0660    1.2480    8.1880 H   0  0
  -20.9530   -3.1480   13.1950 H   0  0
  -20.4050   -1.8630   14.2370 H   0  0
    6.9300    0.2990    8.7700 H   0  0
    6.4650    1.9710    8.6450 H   0  0
  -20.6040    1.8870   10.6350 H   0  0
  -21.3190    0.8220   13.8810 H   0  0
  -20.1600    1.9590   13.1920 H   0  0
  -19.5900    0.5180   14.0280 H   0  0
    5.6230    0.6520    6.2440 H   0  0
  -22.8910   -2.3010   12.1990 H   0  0
  -22.8300    1.4510    9.9340 H   0  0
    5.7620    0.5350    4.1640 H   0  0
    9.4380    1.4000    2.0860 H   0  0
   10.2170    1.8990    5.8590 H   0  0
   10.5270    2.7890    4.3730 H   0  0
   10.9960    1.0960    4.4980 H   0  0
    7.2130    0.6660    0.5310 H   0  0
    6.3890    0.2990   -1.3520 H   0  0
    2.2700   -0.8810   -1.8320 H   0  0
    2.8050   -0.4470    1.9920 H   0  0
    2.0570   -1.6480    0.9450 H   0  0
    1.5860    0.0450    0.8180 H   0  0
    3.8240   -0.6230   -4.1600 H   0  0
    3.9610   -0.7400   -6.2420 H   0  0
    7.6390    0.1250   -8.3200 H   0  0
    8.4180    0.6230   -4.5450 H   0  0
    8.7290    1.5140   -6.0330 H   0  0
    9.1970   -0.1800   -5.9060 H   0  0
    5.4120   -0.6090   -9.8730 H   0  0
    4.5900   -0.9770  -11.7580 H   0  0
    0.4710   -2.1560  -12.2370 H   0  0
    1.0040   -1.7230   -8.4120 H   0  0
    0.2560   -2.9240   -9.4610 H   0  0
   -0.2130   -1.2300   -9.5860 H   0  0
    2.0230   -1.8980  -14.5670 H   0  0
    3.9590   -2.4220  -16.3640 H   0  0
    3.4570   -0.7400  -16.4920 H   0  0
    6.3110   -1.7480  -15.9570 H   0  0
    5.9100   -0.1210  -16.0860 H   0  0
    5.0920   -0.4820  -18.4790 H   0  0
    5.5080   -2.1660  -18.3440 H   0  0
    7.8340   -0.6390  -17.6700 H   0  0
    9.8240   -0.1820  -18.1120 H   0  0
   11.2950   -0.1390  -22.1620 H   0  0
    7.5350   -1.0900  -22.4140 H   0  0
    9.0410   -1.6820  -23.1080 H   0  0
    8.6190    0.0230  -23.2450 H   0  0
   13.1210    0.4750  -20.1160 H   0  0
   15.0610    1.0000  -19.5470 H   0  0
   16.1270    1.5920  -15.4120 H   0  0
   12.3540    0.6600  -15.4070 H   0  0
   13.3600    1.8810  -14.6310 H   0  0
   13.7810    0.1760  -14.4940 H   0  0
   18.1490    1.9400  -17.3340 H   0  0
   22.2480    2.8070  -19.1920 H   0  0
   21.6120    2.4410  -21.8050 H   0  0
   17.8440    1.4880  -22.0820 H   0  0
   19.3520    0.8950  -22.7760 H   0  0
   18.9300    2.6000  -22.9110 H   0  0
  1  2  2  0
  2  3  1  0
  2  4  1  0
  3  5  1  0
  4  6  1  0
  5  7  1  0
  6  8  1  0
  7  9  1  0
  8 10  1  0
  9 11  1  0
 10 12  1  0
 11 13  1  0
 12 14  1  0
 12 15  1  0
 13 16  2  0
 13 17  1  0
 14 18  1  0
 17 19  1  0
 17 20  1  0
 17 21  1  0
 18 22  1  0
 20 23  1  0
 20 24  1  0
 20 25  1  0
 21 26  1  0
 21 27  1  0
 22 28  1  0
 23 29  1  0
 24 30  1  0
 28 31  1  0
 29 32  1  0
 29 33  1  0
 30 34  1  0
 31 35  2  0
 31 36  1  0
 32 37  1  0
 32 38  1  0
 33 39  1  0
 36 40  1  0
 38 41  1  0
 38 42  1  0
 38 43  1  0
 40 44  1  0
 41 45  2  0
 42 46  2  0
 44 47  1  0
 45 48  1  0
 47 49  2  0
 47 50  1  0
 48 51  2  0
 50 52  1  0
 50 53  2  0
 52 54  1  0
 52 55  1  0
 53 56  1  0
 56 57  1  0
 57 58  1  0
 58 59  2  0
 58 60  1  0
 60 61  1  0
 60 62  2  0
 61 63  1  0
 61 64  1  0
 62 65  1  0
 65 66  1  0
 66 67  1  0
 67 68  2  0
 67 69  1  0
 69 70  1  0
 69 71  2  0
 70 72  1  0
 70 73  1  0
 71 74  1  0
 74 75  1  0
 75 76  1  0
 76 77  2  0
 76 78  1  0
 78 79  1  0
 78 80  2  0
 79 81  1  0
 79 82  1  0
 80 83  1  0
 83 84  1  0
 84 85  1  0
 85 86  2  0
 85 87  1  0
 87 88  1  0
 88 89  1  0
 89 90  1  0
 90 91  1  0
 91 92  2  0
 91 93  1  0
 93 94  1  0
 93 95  2  0
 94 96  1  0
 94 97  1  0
 95 98  1  0
 98 99  1  0
 99100  1  0
100101  2  0
100102  1  0
102103  1  0
102104  2  0
103105  1  0
103106  1  0
104107  1  0
107108  1  0
108109  1  0
109110  2  0
109111  1  0
111112  2  0
111113  1  0
112114  1  0
113115  1  0
113116  1  0
 23 26  1  0
 30 32  1  0
 39 41  1  0
 46 48  1  0
 54 56  2  0
 63 65  2  0
 72 74  2  0
 81 83  2  0
 96 98  2  0
105107  2  0
114115  2  0
  3117  1  0
  4118  1  0
  5119  1  0
  5120  1  0
  6121  1  0
  6122  1  0
  7123  1  0
  7124  1  0
  8125  1  0
  8126  1  0
 10127  1  0
 10128  1  0
 11129  1  0
 11130  1  0
 14131  1  0
 14132  1  0
 15133  1  0
 15134  1  0
 15135  1  0
 18136  1  0
 18137  1  0
 19138  1  0
 21139  1  0
 22140  1  0
 22141  1  0
 23142  1  0
 24143  1  0
 24144  1  0
 25145  1  0
 25146  1  0
 25147  1  0
 26148  1  0
 26149  1  0
 27150  1  0
 27151  1  0
 27152  1  0
 28153  1  0
 29154  1  0
 30155  1  0
 33156  1  0
 33157  1  0
 34158  1  0
 36159  1  0
 36160  1  0
 39161  1  0
 39162  1  0
 40163  1  0
 40164  1  0
 42165  1  0
 43166  1  0
 43167  1  0
 43168  1  0
 44169  1  0
 45170  1  0
 46171  1  0
 53172  1  0
 54173  1  0
 55174  1  0
 55175  1  0
 55176  1  0
 57177  1  0
 62178  1  0
 63179  1  0
 64180  1  0
 64181  1  0
 64182  1  0
 66183  1  0
 71184  1  0
 72185  1  0
 73186  1  0
 73187  1  0
 73188  1  0
 75189  1  0
 80190  1  0
 81191  1  0
 82192  1  0
 82193  1  0
 82194  1  0
 84195  1  0
 87196  1  0
 87197  1  0
 88198  1  0
 88199  1  0
 89200  1  0
 89201  1  0
 90202  1  0
 95203  1  0
 96204  1  0
 97205  1  0
 97206  1  0
 97207  1  0
 99208  1  0
104209  1  0
105210  1  0
106211  1  0
106212  1  0
106213  1  0
108214  1  0
114215  1  0
115216  1  0
116217  1  0
116218  1  0
116219  1  0
M  END
> <Name>
CHEMBL563739

> <IC50 nM>
20

> <Molecule_ChEMBL_ID>
CHEMBL563739

> <Smiles>
C[C@@H]1C[C@H]2[C@@H]3CCC4=CC(=O)C=C[C@]4(C)[C@@]3(F)[C@@H](O)C[C@]2(C)[C@@]1(O)C(=O)CSCCNC(=S)NCCCN(C)CCCNC(=O)CCNC(=O)c1cc(NC(=O)c2cc(NC(=O)c3cc(NC(=O)c4cc(NC(=O)CCCNC(=O)c5cc(NC(=O)c6cc(NC(=O)c7ncc
n7C)cn6C)cn5C)cn4C)cn3C)cn2C)cn1C

$$$$
CHEMBL384444
  SciTegic08162514323D

143152  0  0  1  0            999 V2000
   -5.4280   -8.4180   -7.2310 O   0  0
   -4.3340   -7.9320   -7.0840 C   0  0
   -3.4880   -8.3280   -5.9470 C   0  0
   -3.8160   -6.9060   -8.0630 C   0  0
   -2.3130   -7.7400   -5.6470 C   0  0
   -2.6210   -6.0590   -7.5900 C   0  0
   -1.7620   -6.6250   -6.4590 C   0  0
   -1.5330   -8.2480   -4.4550 C   0  0
   -0.5330   -6.1130   -6.2010 C   0  0
   -0.0350   -8.0840   -4.6580 C   0  0
    0.0660   -4.9420   -6.9840 C   0  0  1  0  0  0
    0.3500   -6.6510   -5.0650 C   0  0  1  0  0  0
   -0.1640   -3.6540   -6.2950 C   0  0
    1.5410   -5.1880   -7.3690 C   0  0
    1.8160   -6.7500   -5.5000 C   0  0  1  0  0  0
   -0.9280   -3.6150   -5.1170 C   0  0
    0.3830   -2.4690   -6.8180 C   0  0
    2.4320   -5.5180   -6.1680 C   0  0  1  0  0  0
    2.9080   -7.0820   -4.4690 C   0  0
   -1.1460   -2.3910   -4.4610 C   0  0
    0.1660   -1.2440   -6.1620 C   0  0
    3.8830   -6.0260   -6.4450 C   0  0  2  0  0  0
    2.4590   -4.3440   -5.1680 C   0  0
    4.2270   -6.5410   -5.0350 C   0  0
   -0.6020   -1.2030   -4.9820 C   0  0
    4.7420   -4.9770   -6.8260 O   0  0
    3.9650   -7.1510   -7.3950 C   0  0
   -0.8260    0.0640   -4.3030 C   0  0
    4.0290   -8.0940   -8.1150 C   0  0
   -1.8960    0.1990   -3.3980 C   0  0
    0.0230    1.1580   -4.5490 C   0  0
    4.1190   -9.2910   -8.9530 C   0  0
   -2.1130    1.4260   -2.7440 C   0  0
   -0.1970    2.3830   -3.8930 C   0  0
   -1.2660    2.5200   -2.9880 C   0  0
   -1.4710    3.6660   -2.3730 O   0  0
   -0.3400    4.4730   -2.0720 C   0  0
    0.6950    3.6370   -1.3180 C   0  0
    0.0880    3.1310   -0.1500 O   0  0
    0.8850    2.1780    0.5230 C   0  0  2  0  0  0
    0.0120    1.4260    1.5370 C   0  0
    2.0920    2.8670    1.1970 C   0  0
   -0.5120    2.3110    2.6950 C   0  0  2  0  0  0
    1.9300    3.0350    2.7230 C   0  0
    0.4940    3.4240    3.1500 C   0  0  2  0  0  0
   -0.9710    1.4200    3.8560 C   0  0
    0.4430    3.6620    4.6990 C   0  0  2  0  0  0
    0.1130    4.7290    2.4260 C   0  0
   -1.6740    2.2230    4.9650 C   0  0  2  0  0  0
   -1.0230    3.6150    5.2150 C   0  0  1  0  0  0
    1.2110    4.9510    5.1210 C   0  0
   -1.6740    1.4040    6.1210 O   0  0
   -1.1150    4.0840    6.6820 C   0  0  1  0  0  0
    1.0350    5.3690    6.5940 C   0  0  1  0  0  0
   -0.4690    5.4570    6.9040 C   0  0  2  0  0  0
   -2.5230    4.2750    7.2500 C   0  0
    1.7030    4.4390    7.4280 O   0  0
   -0.8670    5.6860    8.3710 C   0  0  2  0  0  0
   -1.1410    6.5370    6.0390 C   0  0
   -2.3460    5.2750    8.3970 C   0  0
   -0.6450    7.1130    8.8600 C   0  0  1  0  0  0
   -1.4610    7.3520   10.1290 C   0  0
    0.8500    7.3560    9.0650 C   0  0
   -1.0370    6.4410   11.2810 C   0  0
   -1.7680    6.7540   12.5610 C   0  0
   -2.7270    6.1020   12.9040 O   0  0
   -1.2810    7.7790   13.2540 O   0  0
   -3.8480   -9.1470   -5.3420 H   0  0
   -3.5310   -7.4340   -8.9750 H   0  0
   -4.6370   -6.2460   -8.3500 H   0  0
   -2.0100   -5.9220   -8.4850 H   0  0
   -2.9750   -5.0700   -7.3010 H   0  0
   -1.8550   -7.6900   -3.5740 H   0  0
   -1.7680   -9.2950   -4.2580 H   0  0
    0.4940   -8.3990   -3.7640 H   0  0
    0.2700   -8.7790   -5.4400 H   0  0
   -0.4340   -4.8170   -7.9530 H   0  0
    0.2520   -5.9880   -4.2010 H   0  0
    1.9300   -4.3130   -7.8790 H   0  0
    1.5900   -5.9650   -8.1090 H   0  0
    1.8070   -7.5330   -6.2440 H   0  0
   -1.3500   -4.5240   -4.7110 H   0  0
    0.9730   -2.4940   -7.7230 H   0  0
    2.9590   -8.1430   -4.3180 H   0  0
    2.7210   -6.6290   -3.5080 H   0  0
   -1.7380   -2.3770   -3.5550 H   0  0
    0.5920   -0.3420   -6.5780 H   0  0
    3.2090   -4.4900   -4.3890 H   0  0
    1.4900   -4.2310   -4.6800 H   0  0
    2.6880   -3.4080   -5.6780 H   0  0
    4.6020   -5.7360   -4.4140 H   0  0
    5.0080   -7.2890   -5.0470 H   0  0
    5.6490   -5.3150   -6.7660 H   0  0
   -2.5610   -0.6290   -3.1970 H   0  0
    0.8500    1.0740   -5.2400 H   0  0
    5.1520   -9.6190   -9.0430 H   0  0
    3.7110   -9.1250   -9.9420 H   0  0
    3.5550  -10.1040   -8.4900 H   0  0
   -2.9360    1.5230   -2.0510 H   0  0
    0.4590    3.2190   -4.0840 H   0  0
   -0.6740    5.3150   -1.4650 H   0  0
    0.0740    4.8440   -3.0100 H   0  0
    1.5430    4.2540   -1.0200 H   0  0
    1.0230    2.7930   -1.9240 H   0  0
    1.2400    1.4860   -0.2420 H   0  0
    0.6110    0.6130    1.9530 H   0  0
   -0.8280    0.9390    1.0350 H   0  0
    2.2950    3.8360    0.7400 H   0  0
    2.9880    2.2750    1.0160 H   0  0
   -1.4140    2.8030    2.3280 H   0  0
    2.2010    2.1000    3.2130 H   0  0
    2.6560    3.7720    3.0640 H   0  0
   -0.0920    0.9060    4.2500 H   0  0
   -1.6410    0.6410    3.4920 H   0  0
    0.9590    2.8320    5.1860 H   0  0
   -0.5270    4.5410    1.5640 H   0  0
    1.0040    5.2480    2.0740 H   0  0
   -0.4220    5.4000    3.0980 H   0  0
   -2.7230    2.3710    4.7010 H   0  0
   -1.5820    4.3320    4.6110 H   0  0
    2.2730    4.8380    4.9080 H   0  0
    0.8890    5.7930    4.5100 H   0  0
   -2.2560    0.6500    5.9400 H   0  0
   -0.6070    3.3590    7.3050 H   0  0
    1.5100    6.3360    6.7640 H   0  0
   -3.1890    4.6780    6.5000 H   0  0
   -2.9470    3.3420    7.5920 H   0  0
    2.6540    4.5450    7.2720 H   0  0
   -0.3160    5.0120    9.0120 H   0  0
   -2.1760    6.7070    6.3340 H   0  0
   -1.1350    6.2460    4.9880 H   0  0
   -0.6090    7.4840    6.1270 H   0  0
   -2.6090    4.8420    9.3500 H   0  0
   -2.9920    6.1270    8.2420 H   0  0
   -1.0250    7.7230    8.0370 H   0  0
   -2.5270    7.2460    9.9280 H   0  0
   -1.4140    8.3990   10.4280 H   0  0
    1.3050    7.8520    8.2050 H   0  0
    1.3750    6.4120    9.2210 H   0  0
    1.0230    7.9810    9.9400 H   0  0
    0.0310    6.6060   11.4180 H   0  0
   -1.1820    5.3930   11.0200 H   0  0
   -1.7010    8.0270   14.0880 H   0  0
  1  2  2  0
  2  3  1  0
  2  4  1  0
  3  5  2  0
  4  6  1  0
  5  7  1  0
  5  8  1  0
  7  9  2  0
  8 10  1  0
  9 11  1  0
  9 12  1  0
 11 13  1  0
 11 14  1  0
 12 15  1  0
 13 16  2  0
 13 17  1  0
 14 18  1  0
 15 19  1  0
 16 20  1  0
 17 21  2  0
 18 22  1  0
 18 23  1  0
 19 24  1  0
 20 25  2  0
 22 26  1  0
 22 27  1  0
 25 28  1  0
 27 29  3  0
 28 30  2  0
 28 31  1  0
 29 32  1  0
 30 33  1  0
 31 34  2  0
 33 35  2  0
 35 36  1  0
 36 37  1  0
 37 38  1  0
 38 39  1  0
 40 39  1  0
 40 41  1  0
 40 42  1  0
 43 41  1  0
 42 44  1  0
 43 45  1  0
 43 46  1  0
 45 47  1  0
 45 48  1  0
 46 49  1  0
 50 47  1  0
 47 51  1  0
 49 52  1  0
 50 53  1  0
 51 54  1  0
 53 55  1  0
 53 56  1  0
 54 57  1  0
 55 58  1  0
 55 59  1  0
 56 60  1  0
 58 61  1  0
 61 62  1  0
 61 63  1  0
 62 64  1  0
 64 65  1  0
 65 66  2  0
 65 67  1  0
  6  7  1  0
 12 10  1  0
 15 18  1  0
 21 25  1  0
 22 24  1  0
 34 35  1  0
 44 45  1  0
 49 50  1  0
 54 55  1  0
 58 60  1  0
  3 68  1  0
  4 69  1  0
  4 70  1  0
  6 71  1  0
  6 72  1  0
  8 73  1  0
  8 74  1  0
 10 75  1  0
 10 76  1  0
 11 77  1  0
 12 78  1  0
 14 79  1  0
 14 80  1  0
 15 81  1  0
 16 82  1  0
 17 83  1  0
 19 84  1  0
 19 85  1  0
 20 86  1  0
 21 87  1  0
 23 88  1  0
 23 89  1  0
 23 90  1  0
 24 91  1  0
 24 92  1  0
 26 93  1  0
 30 94  1  0
 31 95  1  0
 32 96  1  0
 32 97  1  0
 32 98  1  0
 33 99  1  0
 34100  1  0
 37101  1  0
 37102  1  0
 38103  1  0
 38104  1  0
 40105  1  0
 41106  1  0
 41107  1  0
 42108  1  0
 42109  1  0
 43110  1  0
 44111  1  0
 44112  1  0
 46113  1  0
 46114  1  0
 47115  1  0
 48116  1  0
 48117  1  0
 48118  1  0
 49119  1  0
 50120  1  0
 51121  1  0
 51122  1  0
 52123  1  0
 53124  1  0
 54125  1  0
 56126  1  0
 56127  1  0
 57128  1  0
 58129  1  0
 59130  1  0
 59131  1  0
 59132  1  0
 60133  1  0
 60134  1  0
 61135  1  0
 62136  1  0
 62137  1  0
 63138  1  0
 63139  1  0
 63140  1  0
 64141  1  0
 64142  1  0
 67143  1  0
M  END
> <Name>
CHEMBL384444

> <IC50 nM>
2.5

> <Molecule_ChEMBL_ID>
CHEMBL384444

> <Smiles>
CC#C[C@]1(O)CC[C@H]2[C@@H]3CCC4=CC(=O)CCC4=C3[C@@H](c3ccc(-c4ccc(OCCO[C@H]5CC[C@@]6(C)[C@@H](C5)C[C@@H](O)[C@@H]5[C@@H]6C[C@H](O)[C@]6(C)[C@@H]([C@H](C)CCC(=O)O)CC[C@@H]56)cc4)cc3)C[C@@]21C

$$$$
CHEMBL374507
  SciTegic08162514323D

136144  0  0  1  0            999 V2000
    6.1640   -0.6450  -10.3280 O   0  0
    4.9920   -0.5630  -10.0450 C   0  0
    4.0940    0.2950  -10.8440 C   0  0
    4.4180   -1.3280   -8.8770 C   0  0
    2.7720    0.3850  -10.5840 C   0  0
    2.9040   -1.6000   -8.9940 C   0  0
    2.1390   -0.3890   -9.4920 C   0  0
    1.8750    1.2830  -11.3950 C   0  0
    0.9360   -0.0120   -8.9860 C   0  0
    1.0590    2.1520  -10.4400 C   0  0
    0.1450   -0.9020   -8.0310 C   0  0  1  0  0  0
    0.3200    1.3420   -9.3400 C   0  0  1  0  0  0
    0.5060   -0.5940   -6.6230 C   0  0
   -1.3930   -0.8420   -8.2620 C   0  0
   -1.1990    1.2250   -9.6020 C   0  0  1  0  0  0
    1.5350    0.3240   -6.3460 C   0  0
   -0.1780   -1.2210   -5.5660 C   0  0
   -1.9100    0.6050   -8.3850 C   0  0  1  0  0  0
   -1.9450    2.5550   -9.7330 C   0  0
    1.8790    0.6170   -5.0140 C   0  0
    0.1660   -0.9280   -4.2360 C   0  0
   -3.4100    0.8630   -8.6930 C   0  0  2  0  0  0
   -1.5610    1.4100   -7.1190 C   0  0
   -3.4040    2.2500   -9.3710 C   0  0
    1.1930   -0.0080   -3.9550 C   0  0
    2.9670    1.5920   -4.7340 C   0  0
   -4.1930    0.9040   -7.5060 O   0  0
   -4.0200   -0.1520   -9.5670 C   0  0
    1.5080    0.2600   -2.7030 O   0  0
   -4.5390   -0.9690  -10.2640 C   0  0
    0.7830   -0.4020   -1.6780 C   0  0
   -5.1840   -1.9650  -11.1110 C   0  0
    1.3030    0.0490   -0.3130 C   0  0
    0.5660   -0.6230    0.6860 O   0  0
    1.0370   -0.3670    1.9940 C   0  0  2  0  0  0
    0.3380   -1.3130    2.9960 C   0  0
    0.8010    1.1250    2.3180 C   0  0
   -0.8570   -0.6190    3.6820 C   0  0  2  0  0  0
    0.7620    1.3550    3.8340 C   0  0
   -0.3910    0.5900    4.5490 C   0  0  2  0  0  0
   -1.7990   -1.5900    4.4260 C   0  0
    0.1040    0.1290    5.9550 C   0  0  2  0  0  0
   -1.5940    1.5350    4.7090 C   0  0
   -1.2970   -2.0220    5.8110 C   0  0  2  0  0  0
   -0.9140   -0.7990    6.6700 C   0  0  1  0  0  0
    0.5160    1.3220    6.8580 C   0  0
   -0.2010   -2.9040    5.6580 O   0  0
   -0.3360   -1.2090    8.0370 C   0  0  1  0  0  0
    1.0060    0.9120    8.2640 C   0  0  1  0  0  0
   -0.0530    0.0080    8.9300 C   0  0  2  0  0  0
   -1.2250   -2.0800    8.9240 C   0  0
    2.2560    0.2560    8.1430 O   0  0
    0.3500   -0.7210   10.2210 C   0  0  2  0  0  0
   -1.3360    0.8070    9.2010 C   0  0
   -0.6820   -1.8520   10.3380 C   0  0
    0.3870    0.1720   11.4590 C   0  0  1  0  0  0
    0.6230   -0.6880   12.7010 C   0  0
    1.4510    1.2520   11.2780 C   0  0
   -0.5060   -0.5720   13.7230 C   0  0
   -0.2640   -1.4200   14.9460 C   0  0
    0.6860   -2.1640   15.0080 O   0  0
   -1.1620   -1.2790   15.9160 O   0  0
    4.5180    0.8670  -11.6540 H   0  0
    4.6170   -0.7600   -7.9670 H   0  0
    4.9470   -2.2750   -8.7640 H   0  0
    2.5510   -1.9180   -8.0120 H   0  0
    2.7270   -2.4280   -9.6740 H   0  0
    1.2110    0.6660  -12.0020 H   0  0
    2.4490    1.9080  -12.0760 H   0  0
    1.7480    2.8420   -9.9490 H   0  0
    0.3710    2.7810  -11.0020 H   0  0
    0.4220   -1.9400   -8.1900 H   0  0
    0.4380    1.9550   -8.4490 H   0  0
   -1.6390   -1.4200   -9.1660 H   0  0
   -1.9180   -1.3500   -7.4450 H   0  0
   -1.3650    0.6310  -10.4960 H   0  0
    2.0610    0.8070   -7.1580 H   0  0
   -0.9690   -1.9280   -5.7740 H   0  0
   -1.8590    2.9790  -10.7230 H   0  0
   -1.5430    3.2790   -9.0390 H   0  0
   -0.3610   -1.4100   -3.4260 H   0  0
   -1.9000    2.4430   -7.1880 H   0  0
   -0.4820    1.4260   -6.9570 H   0  0
   -2.0210    0.9650   -6.2380 H   0  0
   -3.7720    3.0290   -8.7190 H   0  0
   -4.0270    2.2910  -10.2580 H   0  0
    3.1620    1.7540   -3.6740 H   0  0
    2.7170    2.5550   -5.1780 H   0  0
    3.8930    1.2440   -5.1930 H   0  0
   -5.0350    1.3320   -7.7330 H   0  0
    0.9160   -1.4770   -1.8050 H   0  0
   -0.2710   -0.1520   -1.7890 H   0  0
   -4.5390   -2.8400  -11.2110 H   0  0
   -5.3670   -1.5490  -12.1020 H   0  0
   -6.1330   -2.2740  -10.6780 H   0  0
    1.1560    1.1190   -0.1780 H   0  0
    2.3540   -0.2170   -0.1930 H   0  0
    2.1070   -0.5800    1.9900 H   0  0
    1.0630   -1.6060    3.7560 H   0  0
    0.0250   -2.2420    2.5180 H   0  0
    1.5820    1.7340    1.8610 H   0  0
   -0.1430    1.4750    1.8970 H   0  0
   -1.4610   -0.2290    2.8590 H   0  0
    1.7270    1.0310    4.2270 H   0  0
    0.7070    2.4220    4.0490 H   0  0
   -2.7580   -1.0920    4.5630 H   0  0
   -2.0140   -2.4610    3.8050 H   0  0
    1.0040   -0.4650    5.7950 H   0  0
   -2.0200    1.8160    3.7460 H   0  0
   -1.2990    2.4490    5.2250 H   0  0
   -2.3810    1.0610    5.2970 H   0  0
   -2.0820   -2.5900    6.3110 H   0  0
   -1.8300   -0.2290    6.8380 H   0  0
    1.2870    1.9180    6.3690 H   0  0
   -0.3360    1.9940    6.9730 H   0  0
   -0.5430   -3.7170    5.2520 H   0  0
    0.5860   -1.7480    7.8710 H   0  0
    1.1780    1.8010    8.8710 H   0  0
   -1.1840   -3.1210    8.6350 H   0  0
   -2.2560   -1.7640    8.8610 H   0  0
    2.5550    0.0430    9.0390 H   0  0
    1.3260   -1.1700   10.1000 H   0  0
   -2.0740    0.2170    9.7440 H   0  0
   -1.7930    1.1330    8.2660 H   0  0
   -1.1190    1.6950    9.7950 H   0  0
   -0.2230   -2.7460   10.7360 H   0  0
   -1.4900   -1.5840   11.0020 H   0  0
   -0.6110    0.6130   11.4810 H   0  0
    1.5840   -0.4470   13.1580 H   0  0
    0.7870   -1.7290   12.4220 H   0  0
    1.0700    2.1090   10.7190 H   0  0
    2.3130    0.8590   10.7350 H   0  0
    1.8030    1.6130   12.2420 H   0  0
   -1.4100   -0.9080   13.2130 H   0  0
   -0.6560    0.4670   14.0180 H   0  0
   -1.0640   -1.7950   16.7270 H   0  0
  1  2  2  0
  2  3  1  0
  2  4  1  0
  3  5  2  0
  4  6  1  0
  5  7  1  0
  5  8  1  0
  7  9  2  0
  8 10  1  0
  9 11  1  0
  9 12  1  0
 11 13  1  0
 11 14  1  0
 12 15  1  0
 13 16  2  0
 13 17  1  0
 14 18  1  0
 15 19  1  0
 16 20  1  0
 17 21  2  0
 18 22  1  0
 18 23  1  0
 19 24  1  0
 20 25  2  0
 20 26  1  0
 22 27  1  0
 22 28  1  0
 25 29  1  0
 28 30  3  0
 29 31  1  0
 30 32  1  0
 31 33  1  0
 33 34  1  0
 35 34  1  0
 35 36  1  0
 35 37  1  0
 38 36  1  0
 37 39  1  0
 38 40  1  0
 38 41  1  0
 40 42  1  0
 40 43  1  0
 41 44  1  0
 45 42  1  0
 42 46  1  0
 44 47  1  0
 45 48  1  0
 46 49  1  0
 48 50  1  0
 48 51  1  0
 49 52  1  0
 50 53  1  0
 50 54  1  0
 51 55  1  0
 53 56  1  0
 56 57  1  0
 56 58  1  0
 57 59  1  0
 59 60  1  0
 60 61  2  0
 60 62  1  0
  6  7  1  0
 12 10  1  0
 15 18  1  0
 21 25  1  0
 22 24  1  0
 39 40  1  0
 44 45  1  0
 49 50  1  0
 53 55  1  0
  3 63  1  0
  4 64  1  0
  4 65  1  0
  6 66  1  0
  6 67  1  0
  8 68  1  0
  8 69  1  0
 10 70  1  0
 10 71  1  0
 11 72  1  0
 12 73  1  0
 14 74  1  0
 14 75  1  0
 15 76  1  0
 16 77  1  0
 17 78  1  0
 19 79  1  0
 19 80  1  0
 21 81  1  0
 23 82  1  0
 23 83  1  0
 23 84  1  0
 24 85  1  0
 24 86  1  0
 26 87  1  0
 26 88  1  0
 26 89  1  0
 27 90  1  0
 31 91  1  0
 31 92  1  0
 32 93  1  0
 32 94  1  0
 32 95  1  0
 33 96  1  0
 33 97  1  0
 35 98  1  0
 36 99  1  0
 36100  1  0
 37101  1  0
 37102  1  0
 38103  1  0
 39104  1  0
 39105  1  0
 41106  1  0
 41107  1  0
 42108  1  0
 43109  1  0
 43110  1  0
 43111  1  0
 44112  1  0
 45113  1  0
 46114  1  0
 46115  1  0
 47116  1  0
 48117  1  0
 49118  1  0
 51119  1  0
 51120  1  0
 52121  1  0
 53122  1  0
 54123  1  0
 54124  1  0
 54125  1  0
 55126  1  0
 55127  1  0
 56128  1  0
 57129  1  0
 57130  1  0
 58131  1  0
 58132  1  0
 58133  1  0
 59134  1  0
 59135  1  0
 62136  1  0
M  END
> <Name>
CHEMBL374507

> <IC50 nM>
3.1

> <Molecule_ChEMBL_ID>
CHEMBL374507

> <Smiles>
CC#C[C@]1(O)CC[C@H]2[C@@H]3CCC4=CC(=O)CCC4=C3[C@@H](c3ccc(OCCO[C@H]4CC[C@@]5(C)[C@@H](C4)C[C@@H](O)[C@@H]4[C@@H]5C[C@H](O)[C@]5(C)[C@@H]([C@H](C)CCC(=O)O)CC[C@@H]45)c(C)c3)C[C@@]21C

$$$$
CHEMBL235688
  SciTegic08162514323D

 48 49  0  0  1  0            999 V2000
   -3.6740   -0.4750   -2.2890 Cl  0  0
   -2.1050   -1.0980   -2.6170 C   0  0
   -0.9760   -0.2480   -2.6900 C   0  0
   -1.9550   -2.4820   -2.8150 C   0  0
    0.2970   -0.7990   -2.9630 C   0  0
   -1.1290    1.2210   -2.4790 C   0  0
   -0.6890   -3.0230   -3.0880 C   0  0
    1.6990    0.1910   -3.0590 Cl  0  0
    0.4340   -2.1860   -3.1620 C   0  0
   -1.0720    1.5860   -0.9940 C   0  0  2  0  0  0
   -2.3280    1.2970   -0.4220 O   0  0
   -0.7710    3.0660   -0.7620 C   0  0
   -0.0060    0.7990   -0.2320 C   0  0
   -1.0530    3.3910    0.5410 F   0  0
   -1.5430    3.8280   -1.6000 F   0  0
    0.5550    3.3090   -1.0160 F   0  0
   -0.5780    0.0350    0.9630 C   0  0
    0.7330   -0.5490    1.3550 C   0  0
   -1.1290    0.9630    2.0470 C   0  0
   -1.5740   -1.0470    0.5490 C   0  0
    1.6170    0.1780    2.1800 C   0  0
    1.0860   -1.8320    0.9020 C   0  0
    1.2950    1.3810    2.6110 O   0  0
    2.8520   -0.3890    2.5430 C   0  0
    2.3220   -2.3930    1.2680 C   0  0
    2.1040    1.9630    3.6250 C   0  0
    3.2050   -1.6700    2.0900 C   0  0
    2.6580   -3.6070    0.8380 F   0  0
   -2.8070   -3.1450   -2.7600 H   0  0
   -0.3530    1.7500   -3.0330 H   0  0
   -2.0640    1.5570   -2.9220 H   0  0
   -0.5780   -4.0880   -3.2400 H   0  0
    1.4010   -2.6210   -3.3730 H   0  0
   -2.9670    1.9200   -0.8030 H   0  0
    0.5260    0.1230   -0.9020 H   0  0
    0.8070    1.4530    0.0820 H   0  0
   -0.9760    0.5570    3.0450 H   0  0
   -2.1990    1.1210    1.9100 H   0  0
   -0.6410    1.9360    2.0040 H   0  0
   -1.5000   -1.9320    1.1840 H   0  0
   -1.3980   -1.3590   -0.4810 H   0  0
   -2.5980   -0.6760    0.6150 H   0  0
    0.4080   -2.3890    0.2690 H   0  0
    3.5330    0.1640    3.1740 H   0  0
    1.6660    2.9220    3.9000 H   0  0
    2.2190    1.2360    4.4280 H   0  0
    3.0900    2.1560    3.2050 H   0  0
    4.1560   -2.0980    2.3730 H   0  0
  1  2  1  0
  2  3  2  0
  2  4  1  0
  3  5  1  0
  3  6  1  0
  4  7  2  0
  5  8  1  0
  5  9  2  0
  6 10  1  0
 10 11  1  0
 10 12  1  0
 10 13  1  0
 12 14  1  0
 12 15  1  0
 12 16  1  0
 13 17  1  0
 17 18  1  0
 17 19  1  0
 17 20  1  0
 18 21  2  0
 18 22  1  0
 21 23  1  0
 21 24  1  0
 22 25  2  0
 23 26  1  0
 24 27  2  0
 25 28  1  0
  7  9  1  0
 25 27  1  0
  4 29  1  0
  6 30  1  0
  6 31  1  0
  7 32  1  0
  9 33  1  0
 11 34  1  0
 13 35  1  0
 13 36  1  0
 19 37  1  0
 19 38  1  0
 19 39  1  0
 20 40  1  0
 20 41  1  0
 20 42  1  0
 22 43  1  0
 24 44  1  0
 26 45  1  0
 26 46  1  0
 26 47  1  0
 27 48  1  0
M  END
> <Name>
CHEMBL235688

> <IC50 nM>
580

> <Molecule_ChEMBL_ID>
CHEMBL235688

> <Smiles>
COc1ccc(F)cc1C(C)(C)CC(O)(Cc1c(Cl)cccc1Cl)C(F)(F)F

$$$$
CHEMBL5273027
  SciTegic08162514323D

 67 70  0  0  0  0            999 V2000
    6.5820    2.2620   -0.1270 Cl  0  0
    6.2970    0.5700   -0.2480 C   0  0
    6.4810   -0.1190   -1.4670 C   0  0
    5.8730   -0.1350    0.8950 C   0  0
    6.2420   -1.5040   -1.5290 C   0  0
    6.9240    0.5900   -2.6990 C   0  0
    5.6370   -1.5180    0.8220 C   0  0
    5.8200   -2.2070   -0.3890 C   0  0
    5.1150   -2.3670    2.2320 S   0  0
    5.5980   -3.5040   -0.4550 O   0  0
    4.9020   -1.4020    3.2970 O   0  0
    6.1170   -3.3690    2.5570 O   0  0
    3.7130   -3.1430    1.9900 N   0  0
    5.8110   -4.1520   -1.7010 C   0  0
    2.5760   -2.4450    1.8520 C   0  0
    1.3280   -3.1090    1.8030 C   0  0
    2.6090   -1.0350    1.7540 C   0  0
    0.1190   -2.3810    1.6580 C   0  0
    1.4140   -0.2990    1.6090 C   0  0
    0.1470   -0.9510    1.5610 C   0  0
   -1.1620   -3.1310    1.6070 C   0  0
   -1.0180   -0.2360    1.4220 N   0  0
   -2.3440   -2.2700    2.0660 C   0  0
   -1.0270    1.1350    1.3460 C   0  0
   -2.3440   -0.9200    1.3400 C   0  0
   -0.1560    1.7810    1.8750 O   0  0
   -2.1330    1.8050    0.5980 C   0  0
   -2.5330    1.3130   -0.6580 C   0  0
   -2.7750    2.9300    1.1470 C   0  0
   -3.5740    1.9430   -1.3630 C   0  0
   -3.8160    3.5590    0.4410 C   0  0
   -4.2170    3.0660   -0.8120 C   0  0
   -5.3160    3.7330   -1.5590 C   0  0
   -6.6500    3.0140   -1.3550 C   0  0
   -7.8030    3.6820   -2.1070 C   0  0
   -9.1390    2.9730   -1.8890 C   0  0
    5.7290    0.3790    1.8340 H   0  0
    6.3830   -2.0370   -2.4590 H   0  0
    7.7910    1.2340   -2.5590 H   0  0
    6.1080    1.2050   -3.0780 H   0  0
    7.1740   -0.1410   -3.4690 H   0  0
    3.6950   -4.1430    1.9430 H   0  0
    5.2250   -3.7930   -2.5450 H   0  0
    5.5960   -5.2150   -1.5740 H   0  0
    6.8650   -4.0550   -1.9590 H   0  0
    1.2850   -4.1880    1.8750 H   0  0
    3.5490   -0.5020    1.7890 H   0  0
    1.5000    0.7770    1.5410 H   0  0
   -1.3260   -3.4630    0.5820 H   0  0
   -1.1090   -4.0290    2.2250 H   0  0
   -2.2830   -2.1070    3.1450 H   0  0
   -3.2830   -2.7930    1.8870 H   0  0
   -2.5940   -1.0640    0.2890 H   0  0
   -3.1210   -0.2830    1.7640 H   0  0
   -2.0450    0.4490   -1.0880 H   0  0
   -2.4770    3.3150    2.1090 H   0  0
   -3.8770    1.5610   -2.3260 H   0  0
   -4.3070    4.4220    0.8690 H   0  0
   -5.3890    4.7750   -1.2460 H   0  0
   -5.0630    3.7810   -2.6170 H   0  0
   -6.5680    1.9630   -1.6310 H   0  0
   -6.8830    2.9280   -0.2930 H   0  0
   -7.8770    4.7360   -1.8420 H   0  0
   -7.5740    3.7560   -3.1720 H   0  0
   -9.3870    2.9360   -0.8280 H   0  0
   -9.9400    3.4880   -2.4220 H   0  0
   -9.0980    1.9490   -2.2580 H   0  0
  1  2  1  0
  2  3  2  0
  2  4  1  0
  3  5  1  0
  3  6  1  0
  4  7  2  0
  5  8  2  0
  7  9  1  0
  8 10  1  0
  9 11  2  0
  9 12  2  0
  9 13  1  0
 10 14  1  0
 13 15  1  0
 15 16  2  0
 15 17  1  0
 16 18  1  0
 17 19  2  0
 18 20  2  0
 18 21  1  0
 20 22  1  0
 21 23  1  0
 22 24  1  0
 22 25  1  0
 24 26  2  0
 24 27  1  0
 27 28  2  0
 27 29  1  0
 28 30  1  0
 29 31  2  0
 30 32  2  0
 32 33  1  0
 33 34  1  0
 34 35  1  0
 35 36  1  0
  7  8  1  0
 19 20  1  0
 23 25  1  0
 31 32  1  0
  4 37  1  0
  5 38  1  0
  6 39  1  0
  6 40  1  0
  6 41  1  0
 13 42  1  0
 14 43  1  0
 14 44  1  0
 14 45  1  0
 16 46  1  0
 17 47  1  0
 19 48  1  0
 21 49  1  0
 21 50  1  0
 23 51  1  0
 23 52  1  0
 25 53  1  0
 25 54  1  0
 28 55  1  0
 29 56  1  0
 30 57  1  0
 31 58  1  0
 33 59  1  0
 33 60  1  0
 34 61  1  0
 34 62  1  0
 35 63  1  0
 35 64  1  0
 36 65  1  0
 36 66  1  0
 36 67  1  0
M  END
> <Name>
CHEMBL5273027

> <IC50 nM>
100

> <Molecule_ChEMBL_ID>
CHEMBL5273027

> <Smiles>
CCCCc1ccc(C(=O)N2CCCc3cc(NS(=O)(=O)c4cc(Cl)c(C)cc4OC)ccc32)cc1

$$$$
CHEMBL5282262
  SciTegic08162514323D

 57 60  0  0  0  0            999 V2000
   -0.2210   -1.2400    0.2310 S   0  0
   -0.9160   -1.6470    1.4400 O   0  0
   -0.9650   -1.5270   -0.9820 O   0  0
   -0.0120    0.3650    0.3050 N   0  0
    1.2810   -2.0860    0.1580 C   0  0
   -1.0630    1.1850    0.1740 C   0  0
    2.2770   -1.6700   -0.7440 C   0  0
    1.5060   -3.1880    1.0000 C   0  0
   -2.3790    0.6660    0.1620 C   0  0
   -0.8730    2.5800    0.0490 C   0  0
    3.5000   -2.3590   -0.8030 C   0  0
    2.7310   -3.8770    0.9410 C   0  0
   -3.5000    1.5250    0.0230 C   0  0
   -1.9800    3.4450   -0.0880 C   0  0
    3.7290   -3.4630    0.0390 C   0  0
   -3.3150    2.9390   -0.1020 C   0  0
   -4.8590    0.9240    0.0180 C   0  0
    5.0220   -4.1920   -0.0230 C   0  0
   -4.3930    3.7790   -0.2340 N   0  0
   -5.8750    1.8110   -0.7090 C   0  0
    5.0060   -5.2770   -1.1000 C   0  0
   -4.2460    5.1370   -0.3910 C   0  0
   -5.7890    3.2560   -0.2050 C   0  0
    6.3910   -5.8650   -1.3670 C   0  0
   -4.8520    5.7250   -1.2560 O   0  0
   -3.3460    5.8630    0.4940 C   0  0
    6.8560   -6.8130   -0.2620 C   0  0
   -3.2810    5.4750    1.7970 O   0  0
   -2.5080    6.9390    0.1930 C   0  0
   -2.3690    6.3360    2.3400 C   0  0
   -1.8730    7.2460    1.3970 C   0  0
    0.9040    0.7440    0.4470 H   0  0
    2.1040   -0.8220   -1.3910 H   0  0
    0.7400   -3.5060    1.6910 H   0  0
   -2.5450   -0.3990    0.2600 H   0  0
    0.1230    3.0040    0.0550 H   0  0
    4.2620   -2.0370   -1.4960 H   0  0
    2.8980   -4.7230    1.5900 H   0  0
   -1.7750    4.5040   -0.1800 H   0  0
   -4.8440   -0.0630   -0.4510 H   0  0
   -5.1740    0.7750    1.0530 H   0  0
    5.8300   -3.4830   -0.2030 H   0  0
    5.2440   -4.6210    0.9530 H   0  0
   -5.6840    1.7830   -1.7850 H   0  0
   -6.8830    1.4220   -0.5680 H   0  0
    4.2970   -6.0650   -0.8400 H   0  0
    4.5610   -4.9010   -2.0200 H   0  0
   -6.4380    3.8890   -0.8140 H   0  0
   -6.1600    3.3160    0.8180 H   0  0
    6.4180   -6.3610   -2.3380 H   0  0
    7.1210   -5.0700   -1.5250 H   0  0
    6.1500   -7.6350   -0.1390 H   0  0
    7.8400   -7.2190   -0.4900 H   0  0
    6.9240   -6.2890    0.6910 H   0  0
   -2.3790    7.4300   -0.7620 H   0  0
   -2.0740    6.3070    3.3790 H   0  0
   -1.1450    8.0270    1.5680 H   0  0
  1  2  2  0
  1  3  2  0
  1  4  1  0
  1  5  1  0
  4  6  1  0
  5  7  2  0
  5  8  1  0
  6  9  2  0
  6 10  1  0
  7 11  1  0
  8 12  2  0
  9 13  1  0
 10 14  2  0
 11 15  2  0
 13 16  2  0
 13 17  1  0
 15 18  1  0
 16 19  1  0
 17 20  1  0
 18 21  1  0
 19 22  1  0
 19 23  1  0
 21 24  1  0
 22 25  2  0
 22 26  1  0
 24 27  1  0
 26 28  1  0
 26 29  2  0
 28 30  1  0
 29 31  1  0
 12 15  1  0
 14 16  1  0
 20 23  1  0
 30 31  2  0
  4 32  1  0
  7 33  1  0
  8 34  1  0
  9 35  1  0
 10 36  1  0
 11 37  1  0
 12 38  1  0
 14 39  1  0
 17 40  1  0
 17 41  1  0
 18 42  1  0
 18 43  1  0
 20 44  1  0
 20 45  1  0
 21 46  1  0
 21 47  1  0
 23 48  1  0
 23 49  1  0
 24 50  1  0
 24 51  1  0
 27 52  1  0
 27 53  1  0
 27 54  1  0
 29 55  1  0
 30 56  1  0
 31 57  1  0
M  END
> <Name>
CHEMBL5282262

> <IC50 nM>
1150

> <Molecule_ChEMBL_ID>
CHEMBL5282262

> <Smiles>
CCCCc1ccc(S(=O)(=O)Nc2ccc3c(c2)CCCN3C(=O)c2ccco2)cc1

$$$$
CHEMBL5282196
  SciTegic08162514323D

 64 68  0  0  0  0            999 V2000
    2.9880   -0.5980   -0.1110 S   0  0
    3.6800   -1.7640    0.4080 O   0  0
    3.7660    0.1370   -1.0960 O   0  0
    1.6410   -1.1170   -0.8460 N   0  0
    2.6410    0.4610    1.2050 C   0  0
    1.5650   -2.6290   -1.4220 S   0  0
    0.5880   -0.2970   -0.9750 C   0  0
    3.0700    1.7970    1.1620 C   0  0
    1.9280   -0.0180    2.3180 C   0  0
    0.6090   -2.6330   -2.5160 O   0  0
    2.9060   -3.0100   -1.8320 O   0  0
    1.0250   -3.7520   -0.2290 C   0  0
   -0.7270   -0.8140   -0.9880 C   0  0
    0.7790    1.0980   -1.1020 C   0  0
    2.7870    2.6600    2.2360 C   0  0
    1.6450    0.8460    3.3910 C   0  0
    1.2210   -5.1290   -0.4220 C   0  0
    0.3910   -3.2830    0.9360 C   0  0
   -1.8480    0.0430   -1.1250 C   0  0
   -0.3280    1.9630   -1.2380 C   0  0
    2.0740    2.1840    3.3520 C   0  0
    0.7790   -6.0430    0.5510 C   0  0
   -0.0490   -4.1970    1.9080 C   0  0
   -1.6620    1.4570   -1.2540 C   0  0
   -3.2070   -0.5590   -1.1310 C   0  0
    1.7750    3.0960    4.4860 C   0  0
    0.1450   -5.5780    1.7170 C   0  0
   -2.7400    2.2970   -1.3870 N   0  0
   -4.2190    0.3280   -1.8630 C   0  0
   -0.3200   -6.5450    2.7460 C   0  0
   -2.5940    3.6540   -1.5490 C   0  0
   -4.1370    1.7730   -1.3540 C   0  0
   -3.3090    4.4220   -0.9470 O   0  0
   -1.5700    4.1640   -2.4490 C   0  0
   -1.1700    3.3630   -3.4770 O   0  0
   -0.9140    5.3970   -2.4180 C   0  0
   -0.2270    4.1170   -4.1150 C   0  0
   -0.0390    5.3630   -3.5040 C   0  0
    3.6190    2.1640    0.3070 H   0  0
    1.5980   -1.0450    2.3500 H   0  0
   -0.8930   -1.8810   -0.8910 H   0  0
    1.7750    1.5220   -1.0960 H   0  0
    3.1210    3.6880    2.1990 H   0  0
    1.0960    0.4750    4.2440 H   0  0
    1.7070   -5.4860   -1.3160 H   0  0
    0.2400   -2.2250    1.0840 H   0  0
   -0.1230    3.0220   -1.3300 H   0  0
    0.9320   -7.1020    0.3980 H   0  0
   -0.5370   -3.8340    2.8010 H   0  0
   -3.1910   -1.5470   -1.5940 H   0  0
   -3.5230   -0.6990   -0.0960 H   0  0
    1.2190    2.6310    5.3010 H   0  0
    1.1930    3.9450    4.1270 H   0  0
    2.7070    3.4820    4.8980 H   0  0
   -4.0220    0.3070   -2.9380 H   0  0
   -5.2290   -0.0610   -1.7290 H   0  0
   -0.7560   -6.0000    3.5860 H   0  0
   -1.0180   -7.2500    2.2950 H   0  0
    0.5290   -7.1130    3.1230 H   0  0
   -4.7910    2.4080   -1.9510 H   0  0
   -4.4980    1.8240   -0.3260 H   0  0
   -1.0530    6.2010   -1.7090 H   0  0
    0.3070    3.7770   -4.9920 H   0  0
    0.6450    6.1430   -3.8130 H   0  0
  1  2  2  0
  1  3  2  0
  1  4  1  0
  1  5  1  0
  4  6  1  0
  4  7  1  0
  5  8  2  0
  5  9  1  0
  6 10  2  0
  6 11  2  0
  6 12  1  0
  7 13  2  0
  7 14  1  0
  8 15  1  0
  9 16  2  0
 12 17  2  0
 12 18  1  0
 13 19  1  0
 14 20  2  0
 15 21  2  0
 17 22  1  0
 18 23  2  0
 19 24  2  0
 19 25  1  0
 21 26  1  0
 22 27  2  0
 24 28  1  0
 25 29  1  0
 27 30  1  0
 28 31  1  0
 28 32  1  0
 31 33  2  0
 31 34  1  0
 34 35  1  0
 34 36  2  0
 35 37  1  0
 36 38  1  0
 16 21  1  0
 20 24  1  0
 23 27  1  0
 29 32  1  0
 37 38  2  0
  8 39  1  0
  9 40  1  0
 13 41  1  0
 14 42  1  0
 15 43  1  0
 16 44  1  0
 17 45  1  0
 18 46  1  0
 20 47  1  0
 22 48  1  0
 23 49  1  0
 25 50  1  0
 25 51  1  0
 26 52  1  0
 26 53  1  0
 26 54  1  0
 29 55  1  0
 29 56  1  0
 30 57  1  0
 30 58  1  0
 30 59  1  0
 32 60  1  0
 32 61  1  0
 36 62  1  0
 37 63  1  0
 38 64  1  0
M  END
> <Name>
CHEMBL5282196

> <IC50 nM>
90

> <Molecule_ChEMBL_ID>
CHEMBL5282196

> <Smiles>
Cc1ccc(S(=O)(=O)N(c2ccc3c(c2)CCCN3C(=O)c2ccco2)S(=O)(=O)c2ccc(C)cc2)cc1

$$$$
CHEMBL191042
  SciTegic08162514323D

 69 72  0  0  0  0            999 V2000
   -1.7480   -1.2170    6.2010 Br  0  0
   -1.0470   -2.0040    4.6350 C   0  0
   -1.2850   -3.3610    4.3360 C   0  0
   -0.2790   -1.2170    3.7560 C   0  0
   -2.0000   -4.1230    5.1410 O   0  0
   -0.7500   -3.9200    3.1600 C   0  0
    0.2520   -1.7830    2.5860 C   0  0
   -1.3630   -4.6640    6.2890 C   0  0
    0.0190   -3.1350    2.2850 C   0  0
   -1.7460   -6.1130    6.4400 C   0  0
    0.5180   -3.6640    1.1860 O   0  0
   -2.4900   -6.6450    5.6490 O   0  0
   -1.2090   -6.7340    7.4850 O   0  0
    0.3690   -3.0000    0.0570 C   0  0
    1.3570   -3.0760   -0.9430 C   0  0
   -0.7750   -2.2130   -0.1540 C   0  0
    1.1990   -2.3690   -2.1460 C   0  0
   -0.9360   -1.5040   -1.3590 C   0  0
    0.0530   -1.5820   -2.3550 C   0  0
   -0.1130   -0.8340   -3.6290 C   0  0
    0.0470    0.6130   -3.4300 N   0  0
    0.2440    1.1150   -2.1680 C   0  0
   -0.0100    1.5040   -4.6000 C   0  0
   -0.7870    1.7990   -1.4800 C   0  0
    1.5000    0.9410   -1.5590 C   0  0
    1.1720    2.4080   -4.6560 C   0  0
   -0.5430    2.3030   -0.1800 C   0  0
   -2.1250    1.9880   -2.1210 C   0  0
    1.7360    1.4430   -0.2700 C   0  0
    1.0180    3.7970   -4.4790 C   0  0
    2.4490    1.8690   -4.8870 C   0  0
   -1.5180    2.9710    0.5200 N   0  0
    0.7190    2.1210    0.4200 C   0  0
   -0.1880    4.3220   -4.2600 F   0  0
    2.1410    4.6390   -4.5310 C   0  0
    3.5720    2.7130   -4.9410 C   0  0
   -1.4920    2.9750    2.1410 S   0  0
    3.4180    4.1000   -4.7620 C   0  0
   -2.8610    3.1290    2.5980 O   0  0
   -0.8810    1.7310    2.5700 O   0  0
   -0.5200    4.3420    2.7620 C   0  0
    4.4800    4.8990   -4.8090 F   0  0
   -0.0880   -0.1760    3.9670 H   0  0
   -0.9300   -4.9590    2.9300 H   0  0
    0.8440   -1.1740    1.9160 H   0  0
   -1.6950   -4.1020    7.1620 H   0  0
   -0.2850   -4.5780    6.1540 H   0  0
   -1.4140   -7.6660    7.6370 H   0  0
    2.2380   -3.6800   -0.7870 H   0  0
   -1.5370   -2.1500    0.6070 H   0  0
    1.9630   -2.4340   -2.9100 H   0  0
   -1.8180   -0.9020   -1.5120 H   0  0
    0.6230   -1.1800   -4.3540 H   0  0
   -1.1040   -1.0310   -4.0390 H   0  0
   -0.9220    2.0980   -4.5550 H   0  0
   -0.0490    0.9000   -5.5080 H   0  0
    2.2990    0.4220   -2.0680 H   0  0
   -2.9010    1.9810   -1.3550 H   0  0
   -2.1190    2.9060   -2.7070 H   0  0
   -2.3200    1.1600   -2.8030 H   0  0
    2.7010    1.3070    0.1950 H   0  0
    2.5740    0.8050   -5.0250 H   0  0
   -2.2420    3.4530    0.0290 H   0  0
    0.9220    2.4980    1.4120 H   0  0
    2.0230    5.7050   -4.3930 H   0  0
    4.5510    2.2930   -5.1190 H   0  0
   -0.4610    4.3910    3.8480 H   0  0
   -0.9430    5.2810    2.4060 H   0  0
    0.4980    4.2680    2.3750 H   0  0
  1  2  1  0
  2  3  2  0
  2  4  1  0
  3  5  1  0
  3  6  1  0
  4  7  2  0
  5  8  1  0
  6  9  2  0
  8 10  1  0
  9 11  1  0
 10 12  2  0
 10 13  1  0
 11 14  1  0
 14 15  2  0
 14 16  1  0
 15 17  1  0
 16 18  2  0
 17 19  2  0
 19 20  1  0
 20 21  1  0
 21 22  1  0
 21 23  1  0
 22 24  2  0
 22 25  1  0
 23 26  1  0
 24 27  1  0
 24 28  1  0
 25 29  2  0
 26 30  2  0
 26 31  1  0
 27 32  1  0
 27 33  2  0
 30 34  1  0
 30 35  1  0
 31 36  2  0
 32 37  1  0
 35 38  2  0
 37 39  2  0
 37 40  2  0
 37 41  1  0
 38 42  1  0
  7  9  1  0
 18 19  1  0
 29 33  1  0
 36 38  1  0
  4 43  1  0
  6 44  1  0
  7 45  1  0
  8 46  1  0
  8 47  1  0
 13 48  1  0
 15 49  1  0
 16 50  1  0
 17 51  1  0
 18 52  1  0
 20 53  1  0
 20 54  1  0
 23 55  1  0
 23 56  1  0
 25 57  1  0
 28 58  1  0
 28 59  1  0
 28 60  1  0
 29 61  1  0
 31 62  1  0
 32 63  1  0
 33 64  1  0
 35 65  1  0
 36 66  1  0
 41 67  1  0
 41 68  1  0
 41 69  1  0
M  END
> <Name>
CHEMBL191042

> <IC50 nM>
1.8

> <Molecule_ChEMBL_ID>
CHEMBL191042

> <Smiles>
Cc1c(NS(C)(=O)=O)cccc1N(Cc1ccc(Oc2ccc(Br)c(OCC(=O)O)c2)cc1)Cc1ccc(F)cc1F

$$$$
CHEMBL244331
  SciTegic08162514323D

 52 54  0  0  1  0            999 V2000
    1.7830   -0.7520    0.3590 S   0  0
    2.7230   -0.0180   -0.4690 O   0  0
    1.7730   -0.3110    1.7440 O   0  0
    0.2030   -0.3910   -0.2700 N   0  0
    2.2210   -2.4240    0.3260 C   0  0
   -0.2150    1.0020   -0.3070 C   0  0  2  0  0  0
    3.5610   -2.7970    0.1050 C   0  0
    1.2360   -3.4120    0.5180 C   0  0
   -0.1780    1.5920    1.0760 C   0  0
   -1.5900    1.1310   -0.9610 C   0  0
    3.9140   -4.1560    0.0780 C   0  0
    4.6060   -1.7580   -0.0980 C   0  0
    1.5940   -4.7720    0.4880 C   0  0
   -0.1800   -3.0260    0.7500 C   0  0
   -0.9940    1.2750    1.9100 O   0  0
    0.8030    2.4650    1.2930 O   0  0
   -2.0220    2.5820   -1.0510 C   0  0
    2.9320   -5.1450    0.2700 C   0  0
    0.7830    2.9820    2.6150 C   0  0
   -3.2810    3.0720   -1.0880 C   0  0
   -1.1760    3.7050   -1.1170 C   0  0
    3.3090   -6.5820    0.2400 C   0  0
   -3.3070    4.4410   -1.1720 C   0  0
   -4.4790    2.3160   -1.0470 C   0  0
   -1.9860    4.8650   -1.1910 N   0  0
   -4.5240    5.1580   -1.2230 C   0  0
   -5.7170    3.0100   -1.0960 C   0  0
   -5.7400    4.4280   -1.1820 C   0  0
    0.1130   -0.7770   -1.2210 H   0  0
    0.4490    1.5620   -0.9670 H   0  0
   -2.3360    0.5640   -0.4020 H   0  0
   -1.5880    0.6890   -1.9570 H   0  0
    4.9430   -4.4440   -0.0900 H   0  0
    4.5530   -0.9260    0.6050 H   0  0
    4.5220   -1.3500   -1.1050 H   0  0
    5.5920   -2.2130   -0.0040 H   0  0
    0.8400   -5.5310    0.6350 H   0  0
   -0.3110   -2.1950    1.4410 H   0  0
   -0.7290   -3.8810    1.1470 H   0  0
   -0.6410   -2.7460   -0.1990 H   0  0
    1.6520    3.6270    2.7440 H   0  0
   -0.1890    3.4470    2.7850 H   0  0
    0.8790    2.1480    3.3110 H   0  0
   -0.0940    3.7250   -1.1130 H   0  0
    2.4750   -7.2680    0.3980 H   0  0
    4.0530   -6.7790    1.0120 H   0  0
    3.7560   -6.8220   -0.7250 H   0  0
   -4.4630    1.2380   -0.9800 H   0  0
   -1.6660    5.8050   -1.2460 H   0  0
   -4.5330    6.2380   -1.2890 H   0  0
   -6.6450    2.4570   -1.0640 H   0  0
   -6.6840    4.9490   -1.2190 H   0  0
  1  2  2  0
  1  3  2  0
  1  4  1  0
  1  5  1  0
  6  4  1  0
  5  7  2  0
  5  8  1  0
  6  9  1  0
  6 10  1  0
  7 11  1  0
  7 12  1  0
  8 13  2  0
  8 14  1  0
  9 15  2  0
  9 16  1  0
 10 17  1  0
 11 18  2  0
 16 19  1  0
 17 20  1  0
 17 21  2  0
 18 22  1  0
 20 23  1  0
 20 24  2  0
 21 25  1  0
 23 26  2  0
 24 27  1  0
 26 28  1  0
 13 18  1  0
 23 25  1  0
 27 28  2  0
  4 29  1  0
  6 30  1  0
 10 31  1  0
 10 32  1  0
 11 33  1  0
 12 34  1  0
 12 35  1  0
 12 36  1  0
 13 37  1  0
 14 38  1  0
 14 39  1  0
 14 40  1  0
 19 41  1  0
 19 42  1  0
 19 43  1  0
 21 44  1  0
 22 45  1  0
 22 46  1  0
 22 47  1  0
 24 48  1  0
 25 49  1  0
 26 50  1  0
 27 51  1  0
 28 52  1  0
M  END
> <Name>
CHEMBL244331

> <IC50 nM>
2000

> <Molecule_ChEMBL_ID>
CHEMBL244331

> <Smiles>
COC(=O)[C@H](Cc1c[nH]c2ccccc12)NS(=O)(=O)c1c(C)cc(C)cc1C

$$$$
CHEMBL232249
  SciTegic08162514323D

 40 42  0  0  1  0            999 V2000
    4.1990   -2.9140    4.1390 Cl  0  0
    2.5450   -2.5490    3.7670 C   0  0
    2.0040   -2.8750    2.4940 C   0  0
    1.7190   -1.9200    4.7340 C   0  0
    2.9410   -3.6430    1.2640 Cl  0  0
    0.6560   -2.5680    2.2090 C   0  0
    2.2830   -1.4900    6.3070 Cl  0  0
    0.3790   -1.6250    4.4260 C   0  0
   -0.0410   -2.9490    0.6720 S   0  0
   -0.1500   -1.9450    3.1700 C   0  0
   -1.4570   -2.6310    0.7230 O   0  0
    0.2210   -4.3500    0.3850 O   0  0
    0.6060   -2.0550   -0.6740 N   0  0
    0.3970   -0.6170   -0.6990 C   0  0  2  0  0  0
    0.5680   -0.0780   -2.1190 C   0  0
    1.3150    0.0740    0.3080 C   0  0
    0.1370    1.3730   -2.2110 C   0  0
   -1.1230    1.8630   -2.2480 C   0  0
    0.9820    2.4960   -2.2760 C   0  0
   -1.1480    3.2320   -2.3320 C   0  0
   -2.3200    1.1090   -2.2070 C   0  0
    0.1720    3.6560   -2.3520 N   0  0
   -2.3650    3.9510   -2.3810 C   0  0
   -3.5590    1.8010   -2.2540 C   0  0
   -3.5820    3.2190   -2.3420 C   0  0
   -0.2640   -1.1450    5.1520 H   0  0
   -1.1800   -1.7150    2.9430 H   0  0
    1.6150   -2.2360   -0.7520 H   0  0
   -0.6440   -0.5490   -0.3830 H   0  0
   -0.0080   -0.6720   -2.8300 H   0  0
    1.6040   -0.1700   -2.4450 H   0  0
    1.1000   -0.2640    1.3220 H   0  0
    2.3610   -0.1290    0.0800 H   0  0
    1.1720    1.1540    0.2810 H   0  0
    2.0650    2.5160   -2.2720 H   0  0
   -2.3050    0.0290   -2.1410 H   0  0
    0.4920    4.5960   -2.4060 H   0  0
   -2.3750    5.0290   -2.4470 H   0  0
   -4.4860    1.2480   -2.2250 H   0  0
   -4.5250    3.7400   -2.3770 H   0  0
  1  2  1  0
  2  3  2  0
  2  4  1  0
  3  5  1  0
  3  6  1  0
  4  7  1  0
  4  8  2  0
  6  9  1  0
  6 10  2  0
  9 11  2  0
  9 12  2  0
  9 13  1  0
 13 14  1  0
 14 15  1  0
 14 16  1  0
 15 17  1  0
 17 18  1  0
 17 19  2  0
 18 20  1  0
 18 21  2  0
 19 22  1  0
 20 23  2  0
 21 24  1  0
 23 25  1  0
  8 10  1  0
 20 22  1  0
 24 25  2  0
  8 26  1  0
 10 27  1  0
 13 28  1  0
 14 29  1  0
 15 30  1  0
 15 31  1  0
 16 32  1  0
 16 33  1  0
 16 34  1  0
 19 35  1  0
 21 36  1  0
 22 37  1  0
 23 38  1  0
 24 39  1  0
 25 40  1  0
M  END
> <Name>
CHEMBL232249

> <IC50 nM>
1900

> <Molecule_ChEMBL_ID>
CHEMBL232249

> <Smiles>
CC(Cc1c[nH]c2ccccc12)NS(=O)(=O)c1ccc(Cl)c(Cl)c1Cl

$$$$
CHEMBL393551
  SciTegic08162514323D

 55 58  0  0  1  0            999 V2000
    2.9530    1.0580    1.6290 F   0  0
    2.5310    2.1600    0.9300 C   0  0
    2.1190    3.1290    1.8090 F   0  0
    3.5640    2.6420    0.1700 F   0  0
    1.3670    1.7690    0.0180 C   0  0  3  0  0  0
    1.8950    1.3670   -1.2250 O   0  0
    0.3960    2.9260   -0.2270 C   0  0
    0.6910    0.5600    0.6660 C   0  0
   -0.9060    2.4300   -0.6950 N   0  0
    0.6820   -0.6740   -0.2480 C   0  0  3  0  0  0
   -1.8890    2.1780    0.1910 C   0  0
    1.9880   -1.4030   -0.1780 C   0  0
   -0.5140   -1.5590    0.1740 C   0  0
    0.4730   -0.2030   -1.6950 C   0  0
   -2.8750    1.1580   -0.0100 C   0  0
   -1.9400    2.9590    1.3730 C   0  0
    2.0530   -2.8300   -0.0980 C   0  0
    3.2030   -0.6620   -0.2030 C   0  0
   -0.4490   -2.9400   -0.4770 C   0  0
   -3.8990    0.9430    0.9790 C   0  0
   -2.8830    0.3320   -1.1760 C   0  0
   -2.9430    2.7460    2.3420 C   0  0
    3.3160   -3.4770   -0.0610 C   0  0
    0.8280   -3.6720   -0.0450 C   0  0
    4.4550   -1.3170   -0.1560 C   0  0
   -4.8590   -0.0350    0.8050 N   0  0
   -3.9180    1.7440    2.1470 C   0  0
   -3.8790   -0.6620   -1.3320 C   0  0
    4.5100   -2.7250   -0.0900 C   0  0
   -4.8580   -0.8240   -0.3260 C   0  0
    1.9200    2.1500   -1.7930 H   0  0
    0.8010    3.6190   -0.9630 H   0  0
    0.2520    3.5080    0.6840 H   0  0
    1.1560    0.3260    1.6230 H   0  0
   -0.3200    0.8100    0.9880 H   0  0
   -1.0630    2.2810   -1.6720 H   0  0
   -1.4550   -1.0690   -0.0820 H   0  0
   -0.5250   -1.6820    1.2580 H   0  0
   -0.2190   -0.8630   -2.2190 H   0  0
    0.0780    0.8120   -1.7170 H   0  0
    1.4160   -0.2070   -2.2400 H   0  0
   -1.2110    3.7360    1.5570 H   0  0
    3.1860    0.4160   -0.2600 H   0  0
   -0.4750   -2.8400   -1.5630 H   0  0
   -1.3240   -3.5280   -0.1990 H   0  0
   -2.1430    0.4410   -1.9550 H   0  0
   -2.9670    3.3510    3.2340 H   0  0
    3.3690   -4.5550   -0.0080 H   0  0
    0.7070   -4.0240    0.9800 H   0  0
    0.9550   -4.5610   -0.6620 H   0  0
    5.3670   -0.7400   -0.1720 H   0  0
   -4.6760    1.5990    2.9020 H   0  0
   -3.8910   -1.2890   -2.2110 H   0  0
    5.4650   -3.2290   -0.0590 H   0  0
   -5.6170   -1.5840   -0.4430 H   0  0
  1  2  1  0
  2  3  1  0
  2  4  1  0
  2  5  1  0
  5  6  1  0
  5  7  1  0
  5  8  1  0
  7  9  1  0
  8 10  1  0
  9 11  1  0
 10 12  1  0
 10 13  1  0
 10 14  1  0
 11 15  2  0
 11 16  1  0
 12 17  2  0
 12 18  1  0
 13 19  1  0
 15 20  1  0
 15 21  1  0
 16 22  2  0
 17 23  1  0
 17 24  1  0
 18 25  2  0
 20 26  1  0
 20 27  2  0
 21 28  2  0
 23 29  2  0
 26 30  2  0
 19 24  1  0
 22 27  1  0
 25 29  1  0
 28 30  1  0
  6 31  1  0
  7 32  1  0
  7 33  1  0
  8 34  1  0
  8 35  1  0
  9 36  1  0
 13 37  1  0
 13 38  1  0
 14 39  1  0
 14 40  1  0
 14 41  1  0
 16 42  1  0
 18 43  1  0
 19 44  1  0
 19 45  1  0
 21 46  1  0
 22 47  1  0
 23 48  1  0
 24 49  1  0
 24 50  1  0
 25 51  1  0
 27 52  1  0
 28 53  1  0
 29 54  1  0
 30 55  1  0
M  END
> <Name>
CHEMBL393551

> <IC50 nM>
6.31

> <Molecule_ChEMBL_ID>
CHEMBL393551

> <Smiles>
CC1(CC(O)(CNc2cccc3ncccc23)C(F)(F)F)CCCc2ccccc21

$$$$
CHEMBL4173222
  SciTegic08162514323D

 83 88  0  0  1  0            999 V2000
   -3.5000   -4.0040   -5.4770 S   0  0
   -4.3850   -4.5920   -6.4670 O   0  0
   -4.1410   -3.7170   -4.2030 O   0  0
   -2.7190   -2.5210   -6.1250 C   0  0
   -2.0680   -5.0450   -5.2050 C   0  0
   -1.2500   -2.3810   -5.6860 C   0  0
   -1.1740   -4.4060   -4.1270 C   0  0
   -1.0180   -2.9430   -4.3320 N   0  0
   -0.6700   -2.1310   -3.2850 C   0  0
   -1.0390   -0.7710   -3.2950 C   0  0
    0.0570   -2.6500   -2.1970 C   0  0
   -0.6800    0.0630   -2.2210 C   0  0
    0.4140   -1.8160   -1.1250 C   0  0
    0.0450   -0.4590   -1.1370 C   0  0
    0.4260    0.4300    0.0060 C   0  0  2  0  0  0
   -0.7480    1.2520    0.5470 C   0  0
    1.6880    1.2500   -0.3690 C   0  0
   -1.8930    0.6840    1.0080 C   0  0
   -0.5410    2.7680    0.6170 C   0  0  2  0  0  0
    1.9590    2.5780    0.4000 C   0  0  1  0  0  0
   -2.9730    1.5270    1.5570 C   0  0
   -2.1090   -0.8180    0.9900 C   0  0
    0.7970    2.9450    1.3500 C   0  0  1  0  0  0
   -1.6190    3.5700    1.3750 C   0  0
    3.1230    2.6350    1.4300 C   0  0  2  0  0  0
    2.1580    3.7090   -0.6390 C   0  0
   -3.8770    1.0290    2.4180 C   0  0
   -3.0120    2.9810    1.1500 C   0  0
   -3.0160   -1.3850    2.0960 C   0  0
    1.3010    4.2560    1.9590 C   0  0
    4.3950    2.7700    0.8140 O   0  0
    3.1390    1.4360    2.2890 C   0  0
    2.7790    3.9180    2.2420 C   0  0
   -3.8380   -0.3730    2.8590 C   0  0
    3.1150    0.4590    2.9770 C   0  0
   -4.4610   -0.7070    3.8520 O   0  0
    3.0530   -0.7520    3.8140 C   0  0
    3.2130   -1.9710    2.9180 C   0  0
    1.6890   -0.8010    4.5020 C   0  0
    4.1680   -0.7110    4.8540 C   0  0
   -2.7560   -2.5590   -7.2150 H   0  0
   -3.3090   -1.6560   -5.8170 H   0  0
   -2.3850   -6.0430   -4.9040 H   0  0
   -1.5270   -5.1450   -6.1490 H   0  0
   -0.6130   -2.9360   -6.3750 H   0  0
   -0.9300   -1.3400   -5.7480 H   0  0
   -0.1880   -4.8750   -4.1370 H   0  0
   -1.6090   -4.5940   -3.1410 H   0  0
   -1.5980   -0.3520   -4.1210 H   0  0
    0.3500   -3.6910   -2.1720 H   0  0
   -0.9650    1.1040   -2.2340 H   0  0
    0.9730   -2.2210   -0.2930 H   0  0
    0.7420   -0.2460    0.8090 H   0  0
    2.5700    0.6110   -0.3160 H   0  0
    1.6110    1.5000   -1.4300 H   0  0
   -0.4650    3.1660   -0.3970 H   0  0
   -1.1560   -1.3340    1.0700 H   0  0
   -2.5310   -1.0820    0.0210 H   0  0
    0.7600    2.2500    2.1800 H   0  0
   -1.4140    3.5680    2.4530 H   0  0
   -1.5900    4.6150    1.0550 H   0  0
    2.5550    4.6150   -0.1820 H   0  0
    1.2110    3.9650   -1.1170 H   0  0
    2.8520    3.3990   -1.4200 H   0  0
   -4.6640    1.6660    2.8090 H   0  0
   -3.7500    3.5390    1.7300 H   0  0
   -3.2970    3.0650    0.0980 H   0  0
   -2.4040   -1.9340    2.8160 H   0  0
   -3.6910   -2.1210    1.6600 H   0  0
    0.7560    4.5220    2.8590 H   0  0
    1.2090    5.0920    1.2690 H   0  0
    5.0250    3.0080    1.5100 H   0  0
    3.3890    4.7620    1.9630 H   0  0
    2.9340    3.7890    3.3050 H   0  0
    4.1740   -1.9750    2.4060 H   0  0
    2.4300   -1.9940    2.1580 H   0  0
    3.1410   -2.8890    3.5000 H   0  0
    1.5330    0.0590    5.1540 H   0  0
    1.5960   -1.7010    5.1070 H   0  0
    0.8870   -0.8110    3.7640 H   0  0
    4.0630    0.1620    5.5000 H   0  0
    4.1540   -1.6110    5.4690 H   0  0
    5.1430   -0.6520    4.3710 H   0  0
  1  2  2  0
  1  3  2  0
  1  4  1  0
  1  5  1  0
  4  6  1  0
  5  7  1  0
  6  8  1  0
  8  9  1  0
  9 10  2  0
  9 11  1  0
 10 12  1  0
 11 13  2  0
 12 14  2  0
 15 14  1  0
 15 16  1  0
 15 17  1  0
 16 18  2  0
 16 19  1  0
 17 20  1  0
 18 21  1  0
 18 22  1  0
 19 23  1  0
 19 24  1  0
 20 25  1  0
 20 26  1  0
 21 27  2  0
 21 28  1  0
 22 29  1  0
 23 30  1  0
 25 31  1  0
 25 32  1  0
 25 33  1  0
 27 34  1  0
 32 35  3  0
 34 36  2  0
 35 37  1  0
 37 38  1  0
 37 39  1  0
 37 40  1  0
  7  8  1  0
 13 14  1  0
 20 23  1  0
 24 28  1  0
 29 34  1  0
 30 33  1  0
  4 41  1  0
  4 42  1  0
  5 43  1  0
  5 44  1  0
  6 45  1  0
  6 46  1  0
  7 47  1  0
  7 48  1  0
 10 49  1  0
 11 50  1  0
 12 51  1  0
 13 52  1  0
 15 53  1  0
 17 54  1  0
 17 55  1  0
 19 56  1  0
 22 57  1  0
 22 58  1  0
 23 59  1  0
 24 60  1  0
 24 61  1  0
 26 62  1  0
 26 63  1  0
 26 64  1  0
 27 65  1  0
 28 66  1  0
 28 67  1  0
 29 68  1  0
 29 69  1  0
 30 70  1  0
 30 71  1  0
 31 72  1  0
 33 73  1  0
 33 74  1  0
 38 75  1  0
 38 76  1  0
 38 77  1  0
 39 78  1  0
 39 79  1  0
 39 80  1  0
 40 81  1  0
 40 82  1  0
 40 83  1  0
M  END
> <Name>
CHEMBL4173222

> <IC50 nM>
16.7

> <Molecule_ChEMBL_ID>
CHEMBL4173222

> <Smiles>
CC(C)(C)C#C[C@]1(O)CC[C@H]2[C@@H]3CCC4=CC(=O)CCC4=C3[C@@H](c3ccc(N4CCS(=O)(=O)CC4)cc3)C[C@@]21C

$$$$
CHEMBL4161968
  SciTegic08162514323D

 67 71  0  0  1  0            999 V2000
   -3.8990   -1.6520    3.9840 O   0  0
   -3.4790   -1.3380    2.8950 C   0  0
   -3.5860    0.0550    2.4320 C   0  0
   -2.8280   -2.3580    1.9880 C   0  0
   -2.7460    0.5510    1.5040 C   0  0
   -1.9180   -1.7850    0.8830 C   0  0
   -1.6840   -0.2830    0.9160 C   0  0
   -2.8280    1.9900    1.0610 C   0  0
   -0.5350    0.2870    0.4570 C   0  0
   -1.4380    2.6030    1.2520 C   0  0
    0.6430   -0.5410   -0.0680 C   0  0  1  0  0  0
   -0.3320    1.8050    0.5160 C   0  0  1  0  0  0
    0.2890   -1.4630   -1.1930 C   0  0
    1.8960    0.2950   -0.4430 C   0  0
    1.0020    2.0020    1.2480 C   0  0  1  0  0  0
   -0.5640   -1.0240   -2.2210 C   0  0
    0.8090   -2.7700   -1.2230 C   0  0
    2.1800    1.6050    0.3320 C   0  0  1  0  0  0
    1.5020    3.3120    1.8560 C   0  0
   -0.8980   -1.8890   -3.2790 C   0  0
    0.4750   -3.6350   -2.2770 C   0  0
    3.2990    1.6330    1.4120 C   0  0  2  0  0  0
    2.4300    2.7320   -0.7030 C   0  0
    2.9470    2.9180    2.2210 C   0  0
   -1.7290   -1.4630   -4.2810 N   0  0
   -0.3770   -3.1970   -3.3050 C   0  0
    4.5880    1.7420    0.8340 O   0  0
    3.2870    0.4240    2.2620 C   0  0
   -2.5960   -0.2890   -4.1000 C   0  0
   -1.7640   -2.1820   -5.5650 C   0  0
    3.2580   -0.5530    2.9410 C   0  0
    3.1990   -1.7600    3.7700 C   0  0
   -4.3500    0.6840    2.8630 H   0  0
   -2.2540   -3.0590    2.5960 H   0  0
   -3.6170   -2.9510    1.5250 H   0  0
   -0.9750   -2.3260    0.9510 H   0  0
   -2.3480   -2.0350   -0.0900 H   0  0
   -3.5740    2.5430    1.6310 H   0  0
   -3.1270    2.0370    0.0120 H   0  0
   -1.2380    2.6450    2.3240 H   0  0
   -1.4340    3.6410    0.9120 H   0  0
    0.9430   -1.1910    0.7540 H   0  0
   -0.2640    2.1870   -0.5020 H   0  0
    2.7790   -0.3420   -0.4120 H   0  0
    1.7950    0.5590   -1.4980 H   0  0
    0.9300    1.3400    2.1020 H   0  0
   -0.9590   -0.0160   -2.1880 H   0  0
    1.4630   -3.1110   -0.4340 H   0  0
    0.9320    3.6270    2.7170 H   0  0
    1.4770    4.1210    1.1410 H   0  0
    0.8750   -4.6370   -2.2990 H   0  0
    2.8360    3.6310   -0.2340 H   0  0
    1.5020    3.0100   -1.2030 H   0  0
    3.1350    2.4060   -1.4670 H   0  0
    3.6040    3.7460    1.9860 H   0  0
    3.0330    2.7640    3.2870 H   0  0
   -0.6210   -3.8770   -4.1090 H   0  0
    5.1820    2.0760    1.5230 H   0  0
   -2.9040   -0.1040   -3.0700 H   0  0
   -3.4960   -0.4100   -4.7010 H   0  0
   -2.0740    0.6000   -4.4550 H   0  0
   -0.8160   -2.6270   -5.8630 H   0  0
   -2.0740   -1.4940   -6.3520 H   0  0
   -2.5040   -2.9790   -5.5080 H   0  0
    3.9900   -1.7580    4.5220 H   0  0
    2.2380   -1.8220    4.2810 H   0  0
    3.3140   -2.6490    3.1520 H   0  0
  1  2  2  0
  2  3  1  0
  2  4  1  0
  3  5  2  0
  4  6  1  0
  5  7  1  0
  5  8  1  0
  7  9  2  0
  8 10  1  0
  9 11  1  0
  9 12  1  0
 11 13  1  0
 11 14  1  0
 12 15  1  0
 13 16  2  0
 13 17  1  0
 14 18  1  0
 15 19  1  0
 16 20  1  0
 17 21  2  0
 18 22  1  0
 18 23  1  0
 19 24  1  0
 20 25  1  0
 20 26  2  0
 22 27  1  0
 22 28  1  0
 25 29  1  0
 25 30  1  0
 28 31  3  0
 31 32  1  0
  6  7  1  0
 12 10  1  0
 15 18  1  0
 21 26  1  0
 22 24  1  0
  3 33  1  0
  4 34  1  0
  4 35  1  0
  6 36  1  0
  6 37  1  0
  8 38  1  0
  8 39  1  0
 10 40  1  0
 10 41  1  0
 11 42  1  0
 12 43  1  0
 14 44  1  0
 14 45  1  0
 15 46  1  0
 16 47  1  0
 17 48  1  0
 19 49  1  0
 19 50  1  0
 21 51  1  0
 23 52  1  0
 23 53  1  0
 23 54  1  0
 24 55  1  0
 24 56  1  0
 26 57  1  0
 27 58  1  0
 29 59  1  0
 29 60  1  0
 29 61  1  0
 30 62  1  0
 30 63  1  0
 30 64  1  0
 32 65  1  0
 32 66  1  0
 32 67  1  0
M  END
> <Name>
CHEMBL4161968

> <IC50 nM>
64

> <Molecule_ChEMBL_ID>
CHEMBL4161968

> <Smiles>
CC#C[C@]1(O)CC[C@H]2[C@@H]3CCC4=CC(=O)CCC4=C3[C@@H](c3cccc(N(C)C)c3)C[C@@]21C

$$$$
CHEMBL392568
  SciTegic08162514323D

 48 49  0  0  1  0            999 V2000
   -0.2950    1.4840    2.7680 Cl  0  0
    1.2400    0.7890    2.4360 C   0  0
    1.3890   -0.6010    2.2360 C   0  0
    2.3690    1.6290    2.3610 C   0  0
    2.6600   -1.1390    1.9650 C   0  0
    0.2210   -1.5230    2.3110 C   0  0
    3.6390    1.0860    2.0900 C   0  0
    3.7810   -0.2970    1.8910 C   0  0
   -0.2290   -1.9750    0.9200 C   0  0  2  0  0  0
    5.0120    2.1110    2.0020 Cl  0  0
   -1.5630   -2.4200    1.0100 O   0  0
    0.6210   -3.1190    0.3670 C   0  0
   -0.1700   -0.8480   -0.1130 C   0  0
   -0.0900   -3.7950   -0.5900 F   0  0
    0.9510   -3.9770    1.3850 F   0  0
    1.7680   -2.6090   -0.1890 F   0  0
   -1.5000   -0.6410   -0.8360 C   0  0
   -0.9690    0.4120   -1.7420 C   0  0
   -1.9470   -1.8790   -1.6150 C   0  0
   -2.5940   -0.0960    0.0820 C   0  0
   -0.8540    1.7440   -1.2950 C   0  0
   -0.5820    0.0740   -3.0510 C   0  0
   -1.2150    2.0720   -0.0700 O   0  0
   -0.3520    2.7290   -2.1640 C   0  0
   -0.0780    1.0630   -3.9160 C   0  0
   -1.2540    3.4530    0.2640 C   0  0
    0.0370    2.3890   -3.4710 C   0  0
    0.2870    0.7400   -5.1540 F   0  0
    2.2620    2.6930    2.5140 H   0  0
    2.7790   -2.2010    1.8090 H   0  0
    0.4750   -2.3850    2.9300 H   0  0
   -0.5960   -1.0350    2.8400 H   0  0
    4.7500   -0.7280    1.6800 H   0  0
   -1.5880   -3.1110    1.6910 H   0  0
    0.1680    0.0800    0.3480 H   0  0
    0.6350   -1.0230   -0.8280 H   0  0
   -2.3870   -1.6170   -2.5780 H   0  0
   -2.6930   -2.4390   -1.0510 H   0  0
   -1.1040   -2.5410   -1.8030 H   0  0
   -2.9650    0.8710   -0.2580 H   0  0
   -2.2150    0.0330    1.0980 H   0  0
   -3.4380   -0.7810    0.1270 H   0  0
   -0.6700   -0.9470   -3.3950 H   0  0
   -0.2600    3.7500   -1.8240 H   0  0
   -1.7110    3.5510    1.2500 H   0  0
   -0.2500    3.8600    0.1540 H   0  0
   -1.9000    3.9590   -0.4530 H   0  0
    0.4220    3.1520   -4.1310 H   0  0
  1  2  1  0
  2  3  2  0
  2  4  1  0
  3  5  1  0
  3  6  1  0
  4  7  2  0
  5  8  2  0
  6  9  1  0
  7 10  1  0
  9 11  1  0
  9 12  1  0
  9 13  1  0
 12 14  1  0
 12 15  1  0
 12 16  1  0
 13 17  1  0
 17 18  1  0
 17 19  1  0
 17 20  1  0
 18 21  2  0
 18 22  1  0
 21 23  1  0
 21 24  1  0
 22 25  2  0
 23 26  1  0
 24 27  2  0
 25 28  1  0
  7  8  1  0
 25 27  1  0
  4 29  1  0
  5 30  1  0
  6 31  1  0
  6 32  1  0
  8 33  1  0
 11 34  1  0
 13 35  1  0
 13 36  1  0
 19 37  1  0
 19 38  1  0
 19 39  1  0
 20 40  1  0
 20 41  1  0
 20 42  1  0
 22 43  1  0
 24 44  1  0
 26 45  1  0
 26 46  1  0
 26 47  1  0
 27 48  1  0
M  END
> <Name>
CHEMBL392568

> <IC50 nM>
68

> <Molecule_ChEMBL_ID>
CHEMBL392568

> <Smiles>
COc1ccc(F)cc1C(C)(C)CC(O)(Cc1ccc(Cl)cc1Cl)C(F)(F)F

$$$$
CHEMBL1668069
  SciTegic08162514323D

 69 72  0  0  1  0            999 V2000
   -0.6740   -4.9140    0.3630 S   0  0
   -1.7210   -5.9180    0.4140 O   0  0
    0.1720   -5.0270   -0.8100 O   0  0
   -1.4860   -3.3810    0.2230 N   0  0
    0.3180   -5.0920    1.7680 C   0  0
   -2.2300   -3.1130   -0.9960 C   0  0  2  0  0  0
    0.4530   -6.3540    2.3790 C   0  0
    0.9900   -3.9750    2.3010 C   0  0
   -2.5960   -1.6310   -1.0840 C   0  0
   -3.4490   -4.0290   -1.0920 C   0  0
    1.2620   -6.4960    3.5200 C   0  0
   -0.2540   -7.5370    1.8220 C   0  0
    1.7970   -4.1210    3.4420 C   0  0
    0.8520   -2.6390    1.6600 C   0  0
   -1.3910   -0.7970   -1.2090 N   0  0
    1.9320   -5.3810    4.0530 C   0  0
   -1.5040    0.5430   -1.2770 C   0  0
    2.7850   -5.5330    5.2600 C   0  0
   -0.2730    1.2740   -1.3870 C   0  0
   -2.7480    1.2270   -1.2480 C   0  0
   -0.3500    2.6560   -1.4590 C   0  0
    1.0040    0.7130   -1.4240 C   0  0
   -2.7770    2.6430   -1.3280 C   0  0
    0.9530    3.0250   -1.5510 N   0  0
   -1.5680    3.3750   -1.4340 C   0  0
    1.7190    1.8850   -1.5290 N   0  0
   -4.0660    3.3540   -1.2990 C   0  0
    1.4380    4.2930   -1.6480 C   0  0
    2.4670    4.5880   -2.5640 C   0  0
    0.9140    5.3150   -0.8320 C   0  0
    2.9670    5.8970   -2.6640 C   0  0
    1.4140    6.6230   -0.9340 C   0  0
    2.4420    6.9120   -1.8500 C   0  0
    3.0570    8.5200   -1.9730 S   0  0
    2.8090    9.0020   -3.3200 O   0  0
    4.4650    8.4980   -1.6210 O   0  0
    2.1900    9.5720   -0.8140 C   0  0
   -2.1210   -3.2540    1.0240 H   0  0
   -1.4920   -3.3730   -1.7560 H   0  0
   -3.1580   -1.3200   -0.2050 H   0  0
   -3.2480   -1.4450   -1.9370 H   0  0
   -3.1450   -5.0660   -1.2260 H   0  0
   -4.0610   -3.9530   -0.1910 H   0  0
   -4.0740   -3.7520   -1.9390 H   0  0
    1.3650   -7.4630    3.9900 H   0  0
   -0.1800   -7.6350    0.7380 H   0  0
   -1.3110   -7.4840    2.0800 H   0  0
    0.1540   -8.4450    2.2660 H   0  0
    2.3130   -3.2640    3.8520 H   0  0
    0.8970   -2.6560    0.5720 H   0  0
    1.6450   -1.9820    2.0160 H   0  0
   -0.1020   -2.1950    1.9470 H   0  0
   -0.4880   -1.2250   -1.2400 H   0  0
    3.2620   -4.6110    5.5940 H   0  0
    3.5720   -6.2600    5.0610 H   0  0
    2.1840   -5.9140    6.0860 H   0  0
   -3.6740    0.6740   -1.1680 H   0  0
    1.3810   -0.3030   -1.3890 H   0  0
   -1.5760    4.4550   -1.4940 H   0  0
   -4.9360    2.7010   -1.2150 H   0  0
   -4.1760    3.9420   -2.2090 H   0  0
   -4.0820    4.0410   -0.4530 H   0  0
    2.8830    3.8170   -3.1990 H   0  0
    0.1230    5.1100   -0.1230 H   0  0
    3.7560    6.1210   -3.3670 H   0  0
    1.0120    7.4060   -0.3090 H   0  0
    2.5160   10.6130   -0.8240 H   0  0
    2.3260    9.1900    0.1970 H   0  0
    1.1230    9.5550   -1.0370 H   0  0
  1  2  2  0
  1  3  2  0
  1  4  1  0
  1  5  1  0
  4  6  1  0
  5  7  2  0
  5  8  1  0
  6  9  1  0
  6 10  1  0
  7 11  1  0
  7 12  1  0
  8 13  2  0
  8 14  1  0
  9 15  1  0
 11 16  2  0
 15 17  1  0
 16 18  1  0
 17 19  2  0
 17 20  1  0
 19 21  1  0
 19 22  1  0
 20 23  2  0
 21 24  1  0
 21 25  2  0
 22 26  2  0
 23 27  1  0
 24 28  1  0
 28 29  2  0
 28 30  1  0
 29 31  1  0
 30 32  2  0
 31 33  2  0
 33 34  1  0
 34 35  2  0
 34 36  2  0
 34 37  1  0
 13 16  1  0
 23 25  1  0
 24 26  1  0
 32 33  1  0
  4 38  1  0
  6 39  1  0
  9 40  1  0
  9 41  1  0
 10 42  1  0
 10 43  1  0
 10 44  1  0
 11 45  1  0
 12 46  1  0
 12 47  1  0
 12 48  1  0
 13 49  1  0
 14 50  1  0
 14 51  1  0
 14 52  1  0
 15 53  1  0
 18 54  1  0
 18 55  1  0
 18 56  1  0
 20 57  1  0
 22 58  1  0
 25 59  1  0
 27 60  1  0
 27 61  1  0
 27 62  1  0
 29 63  1  0
 30 64  1  0
 31 65  1  0
 32 66  1  0
 37 67  1  0
 37 68  1  0
 37 69  1  0
M  END
> <Name>
CHEMBL1668069

> <IC50 nM>
31.62

> <Molecule_ChEMBL_ID>
CHEMBL1668069

> <Smiles>
Cc1cc(C)c(S(=O)(=O)N[C@@H](C)CNc2cc(C)cc3c2cnn3-c2ccc(S(C)(=O)=O)cc2)c(C)c1

$$$$
CHEMBL1668085
  SciTegic08162514323D

 66 68  0  0  1  0            999 V2000
   -1.3500   -4.7320   -2.9610 S   0  0
   -1.0200   -3.3200   -3.0330 O   0  0
   -0.3850   -5.5820   -3.6410 O   0  0
   -1.2640   -5.1620   -1.2770 N   0  0
   -2.9610   -4.9880   -3.6970 C   0  0
   -2.0780   -4.4060   -0.3400 C   0  0  2  0  0  0
   -2.9750   -4.4860   -5.1410 C   0  0
   -3.3790   -6.4530   -3.5780 C   0  0
   -1.3400   -4.2270    0.9860 C   0  0
   -3.4470   -5.0660   -0.1680 C   0  0
   -0.1390   -3.3970    0.8130 N   0  0
   -0.2520   -2.0550    0.7420 C   0  0
    0.9790   -1.3260    0.6350 C   0  0
   -1.4960   -1.3730    0.7720 C   0  0
    0.9020    0.0570    0.5610 C   0  0
    2.2560   -1.8870    0.5960 C   0  0
   -1.5250    0.0450    0.6930 C   0  0
    2.2050    0.4280    0.4710 N   0  0
   -0.3160    0.7770    0.5880 C   0  0
    2.9710   -0.7150    0.4920 N   0  0
   -2.8150    0.7540    0.7230 C   0  0
    2.6890    1.6930    0.3730 C   0  0
    2.1680    2.7150    1.1900 C   0  0
    3.7170    1.9860   -0.5450 C   0  0
    2.6700    4.0250    1.0880 C   0  0
    4.2170    3.2950   -0.6440 C   0  0
    2.1170    5.1090    1.9550 C   0  0
    3.6950    4.3150    0.1700 C   0  0
    0.9940    5.0370    2.3990 O   0  0
    2.9040    6.1880    2.2380 N   0  0
    2.3750    7.2640    3.0900 C   0  0
    3.5060    8.1230    3.6540 C   0  0
    1.3240    8.0860    2.3440 C   0  0
   -1.4860   -6.1600   -1.1660 H   0  0
   -3.5840   -4.3560   -3.0640 H   0  0
   -2.1720   -3.4550   -0.8610 H   0  0
   -2.6800   -3.4400   -5.2110 H   0  0
   -3.9710   -4.5800   -5.5720 H   0  0
   -2.2890   -5.0660   -5.7580 H   0  0
   -3.3440   -6.8030   -2.5450 H   0  0
   -2.7190   -7.0920   -4.1680 H   0  0
   -4.3950   -6.5960   -3.9430 H   0  0
   -1.9900   -3.7660    1.7310 H   0  0
   -1.0510   -5.1930    1.4000 H   0  0
   -4.0900   -4.5000    0.5060 H   0  0
   -3.3420   -6.0720    0.2380 H   0  0
   -3.9590   -5.1470   -1.1270 H   0  0
    0.7680   -3.8150    0.7440 H   0  0
   -2.4220   -1.9260    0.8540 H   0  0
    2.6330   -2.9000    0.6330 H   0  0
   -0.3260    1.8550    0.5270 H   0  0
   -3.6840    0.1040    0.8110 H   0  0
   -2.9280    1.3400   -0.1890 H   0  0
   -2.8280    1.4470    1.5650 H   0  0
    1.3790    2.5020    1.8990 H   0  0
    4.1310    1.2150   -1.1820 H   0  0
    5.0040    3.5200   -1.3500 H   0  0
    4.0880    5.3180    0.0860 H   0  0
    3.8320    6.2460    1.8710 H   0  0
    1.9100    6.6700    3.8790 H   0  0
    4.2400    7.5260    4.1930 H   0  0
    3.1130    8.8710    4.3440 H   0  0
    4.0250    8.6490    2.8540 H   0  0
    0.5180    7.4450    1.9840 H   0  0
    0.9040    8.8560    2.9920 H   0  0
    1.7660    8.5820    1.4790 H   0  0
  1  2  2  0
  1  3  2  0
  1  4  1  0
  1  5  1  0
  4  6  1  0
  5  7  1  0
  5  8  1  0
  6  9  1  0
  6 10  1  0
  9 11  1  0
 11 12  1  0
 12 13  2  0
 12 14  1  0
 13 15  1  0
 13 16  1  0
 14 17  2  0
 15 18  1  0
 15 19  2  0
 16 20  2  0
 17 21  1  0
 18 22  1  0
 22 23  2  0
 22 24  1  0
 23 25  1  0
 24 26  2  0
 25 27  1  0
 25 28  2  0
 27 29  2  0
 27 30  1  0
 30 31  1  0
 31 32  1  0
 31 33  1  0
 17 19  1  0
 18 20  1  0
 26 28  1  0
  4 34  1  0
  5 35  1  0
  6 36  1  0
  7 37  1  0
  7 38  1  0
  7 39  1  0
  8 40  1  0
  8 41  1  0
  8 42  1  0
  9 43  1  0
  9 44  1  0
 10 45  1  0
 10 46  1  0
 10 47  1  0
 11 48  1  0
 14 49  1  0
 16 50  1  0
 19 51  1  0
 21 52  1  0
 21 53  1  0
 21 54  1  0
 23 55  1  0
 24 56  1  0
 26 57  1  0
 28 58  1  0
 30 59  1  0
 31 60  1  0
 32 61  1  0
 32 62  1  0
 32 63  1  0
 33 64  1  0
 33 65  1  0
 33 66  1  0
M  END
> <Name>
CHEMBL1668085

> <IC50 nM>
39.81

> <Molecule_ChEMBL_ID>
CHEMBL1668085

> <Smiles>
Cc1cc(NC[C@H](C)NS(=O)(=O)C(C)C)c2cnn(-c3cccc(C(=O)NC(C)C)c3)c2c1

$$$$
CHEMBL1668091
  SciTegic08162514323D

 69 73  0  0  1  0            999 V2000
   -3.8090   -6.8600    1.7130 S   0  0
   -2.5980   -7.0710    2.4860 O   0  0
   -5.0060   -7.3520    2.3770 O   0  0
   -4.0040   -5.1370    1.5860 N   0  0
   -3.6410   -7.6920    0.1390 C   0  0
   -2.8400   -4.3420    1.2290 C   0  0  2  0  0  0
   -4.3380   -9.0310    0.0920 C   0  0
   -4.9470   -7.8320   -0.6070 C   0  0
   -3.2050   -2.8600    1.1560 C   0  0
   -2.2170   -4.8610   -0.0680 C   0  0
   -2.0000   -2.0240    1.0720 N   0  0
   -2.1130   -0.6820    1.0040 C   0  0
   -0.8810    0.0470    0.8950 C   0  0
   -3.3560    0.0000    1.0330 C   0  0
   -0.9590    1.4300    0.8220 C   0  0
    0.3960   -0.5140    0.8570 C   0  0
   -3.3850    1.4180    0.9530 C   0  0
    0.3460    1.8010    0.7310 N   0  0
   -2.1760    2.1480    0.8480 C   0  0
    1.1110    0.6580    0.7520 N   0  0
   -4.6740    2.1270    0.9820 C   0  0
    0.8300    3.0660    0.6330 C   0  0
    1.8750    3.3550   -0.2640 C   0  0
    0.2870    4.0920    1.4320 C   0  0
    2.3770    4.6680   -0.3630 C   0  0
    0.7870    5.4000    1.3300 C   0  0
    3.4860    4.9750   -1.3140 C   0  0
    1.8320    5.6890    0.4360 C   0  0
    3.3630    5.8380   -2.1540 O   0  0
    4.6840    4.2460   -1.2250 N   0  0
    5.8070    4.4240   -2.1310 C   0  0  2  0  0  0
    4.9220    3.2480   -0.2010 C   0  0
    5.4020    4.4300   -3.5860 C   0  0
    6.7420    3.2620   -1.7710 C   0  0
    6.4240    2.9770   -0.2930 C   0  0
    4.6860    3.5660   -4.0350 O   0  0
    5.8650    5.4320   -4.3910 N   0  0
   -4.7580   -4.9240    0.9180 H   0  0
   -2.6950   -7.5120   -0.3750 H   0  0
   -2.1840   -4.5370    2.0760 H   0  0
   -4.8260   -9.3910    1.0000 H   0  0
   -3.8970   -9.8110   -0.5290 H   0  0
   -4.9140   -7.8090   -1.6970 H   0  0
   -5.8420   -7.3910   -0.1660 H   0  0
   -3.7890   -2.5630    2.0270 H   0  0
   -3.8400   -2.6600    0.2910 H   0  0
   -1.6680   -5.7850    0.1110 H   0  0
   -2.9860   -5.0430   -0.8180 H   0  0
   -1.5180   -4.1330   -0.4770 H   0  0
   -1.0960   -2.4490    1.0680 H   0  0
   -4.2810   -0.5530    1.1130 H   0  0
    0.7730   -1.5270    0.8930 H   0  0
   -2.1860    3.2280    0.7870 H   0  0
   -5.5430    1.4770    1.0720 H   0  0
   -4.7870    2.7110    0.0700 H   0  0
   -4.6880    2.8200    1.8240 H   0  0
    2.3010    2.5760   -0.8830 H   0  0
   -0.5160    3.8890    2.1270 H   0  0
    0.3710    6.1860    1.9430 H   0  0
    2.2110    6.6990    0.3650 H   0  0
    6.2850    5.3630   -1.8930 H   0  0
    4.3500    2.3590   -0.4320 H   0  0
    4.6310    3.6050    0.7750 H   0  0
    7.7850    3.5020   -1.9320 H   0  0
    6.5100    2.3870   -2.3630 H   0  0
    6.6840    1.9710    0.0020 H   0  0
    6.9670    3.6620    0.3420 H   0  0
    6.4410    6.1680   -4.0350 H   0  0
    5.6310    5.4450   -5.3630 H   0  0
  1  2  2  0
  1  3  2  0
  1  4  1  0
  1  5  1  0
  4  6  1  0
  5  7  1  0
  5  8  1  0
  6  9  1  0
  6 10  1  0
  9 11  1  0
 11 12  1  0
 12 13  2  0
 12 14  1  0
 13 15  1  0
 13 16  1  0
 14 17  2  0
 15 18  1  0
 15 19  2  0
 16 20  2  0
 17 21  1  0
 18 22  1  0
 22 23  2  0
 22 24  1  0
 23 25  1  0
 24 26  2  0
 25 27  1  0
 25 28  2  0
 27 29  2  0
 27 30  1  0
 30 31  1  0
 30 32  1  0
 31 33  1  0
 31 34  1  0
 32 35  1  0
 33 36  2  0
 33 37  1  0
  7  8  1  0
 17 19  1  0
 18 20  1  0
 26 28  1  0
 34 35  1  0
  4 38  1  0
  5 39  1  0
  6 40  1  0
  7 41  1  0
  7 42  1  0
  8 43  1  0
  8 44  1  0
  9 45  1  0
  9 46  1  0
 10 47  1  0
 10 48  1  0
 10 49  1  0
 11 50  1  0
 14 51  1  0
 16 52  1  0
 19 53  1  0
 21 54  1  0
 21 55  1  0
 21 56  1  0
 23 57  1  0
 24 58  1  0
 26 59  1  0
 28 60  1  0
 31 61  1  0
 32 62  1  0
 32 63  1  0
 34 64  1  0
 34 65  1  0
 35 66  1  0
 35 67  1  0
 37 68  1  0
 37 69  1  0
M  END
> <Name>
CHEMBL1668091

> <IC50 nM>
158.49

> <Molecule_ChEMBL_ID>
CHEMBL1668091

> <Smiles>
Cc1cc(NC[C@H](C)NS(=O)(=O)C2CC2)c2cnn(-c3cccc(C(=O)N4CCC[C@H]4C(N)=O)c3)c2c1

$$$$
CHEMBL434183
  SciTegic08162514323D

 52 56  0  0  1  0            999 V2000
   -7.3990    2.6970   -2.7770 F   0  0
   -6.4790    2.0370   -2.0740 C   0  0
   -5.2700    1.6580   -2.6820 C   0  0
   -6.7170    1.7210   -0.7270 C   0  0
   -4.2990    0.9630   -1.9420 C   0  0
   -5.7480    1.0260    0.0160 C   0  0
   -4.5350    0.6450   -0.5900 C   0  0
   -3.5980   -0.0270    0.1250 N   0  0
   -3.8610   -1.0600    0.9710 N   0  0
   -2.2620    0.2190    0.1110 C   0  0
   -2.7480   -1.5600    1.5740 C   0  0
   -1.7850   -0.7260    1.0120 C   0  0
   -1.4120    1.1930   -0.6040 C   0  0
   -0.2810   -0.7420    1.3030 C   0  0
   -0.0760    1.0020   -0.5160 C   0  0
    0.5390   -0.2580    0.0680 C   0  0  1  0  0  0
    0.9670    1.9900   -0.9220 C   0  0
    2.0330    0.1740    0.3160 C   0  0
    0.4300   -1.3480   -1.0120 C   0  0
    2.0350    1.7130    0.1330 C   0  0
    2.4450   -0.1440    1.6540 O   0  0
    2.9240   -0.3460   -0.6880 O   0  0
    3.8500   -0.1990    1.8530 C   0  0  2  0  0  0
    3.5820   -1.5550   -0.3420 C   0  0  2  0  0  0
    4.4300   -1.2970    0.9280 C   0  0
    4.1110   -0.4650    3.3380 C   0  0
    4.4200   -2.0040   -1.5410 C   0  0
   -5.0820    1.8990   -3.7190 H   0  0
   -7.6470    2.0120   -0.2560 H   0  0
   -3.3750    0.6780   -2.4260 H   0  0
   -5.9490    0.7910    1.0530 H   0  0
   -2.6820   -2.3750    2.2850 H   0  0
   -1.8380    2.0220   -1.1510 H   0  0
   -0.1150   -0.0780    2.1520 H   0  0
    0.0350   -1.7380    1.6150 H   0  0
    1.3180    1.7770   -1.9200 H   0  0
    0.6040    3.0080   -0.8790 H   0  0
    0.9590   -1.0680   -1.9220 H   0  0
   -0.6110   -1.5270   -1.2720 H   0  0
    0.8520   -2.2870   -0.6540 H   0  0
    3.0000    2.1150   -0.1510 H   0  0
    1.7540    2.2110    1.0530 H   0  0
    4.2600    0.7770    1.5860 H   0  0
    2.8160   -2.3030   -0.1330 H   0  0
    5.4450   -1.0100    0.6540 H   0  0
    4.5250   -2.2380    1.4690 H   0  0
    3.7130    0.3300    3.9690 H   0  0
    5.1800   -0.5430    3.5330 H   0  0
    3.6470   -1.4000    3.6480 H   0  0
    3.7870   -2.1580   -2.4140 H   0  0
    5.1800   -1.2600   -1.7790 H   0  0
    4.9280   -2.9430   -1.3260 H   0  0
  1  2  1  0
  2  3  2  0
  2  4  1  0
  3  5  1  0
  4  6  2  0
  5  7  2  0
  7  8  1  0
  8  9  1  0
  8 10  1  0
  9 11  2  0
 10 12  2  0
 10 13  1  0
 12 14  1  0
 13 15  2  0
 14 16  1  0
 15 17  1  0
 16 18  1  0
 16 19  1  0
 17 20  1  0
 18 21  1  0
 18 22  1  0
 21 23  1  0
 22 24  1  0
 23 25  1  0
 23 26  1  0
 24 27  1  0
  6  7  1  0
 11 12  1  0
 15 16  1  0
 18 20  1  0
 24 25  1  0
  3 28  1  0
  4 29  1  0
  5 30  1  0
  6 31  1  0
 11 32  1  0
 13 33  1  0
 14 34  1  0
 14 35  1  0
 17 36  1  0
 17 37  1  0
 19 38  1  0
 19 39  1  0
 19 40  1  0
 20 41  1  0
 20 42  1  0
 23 43  1  0
 24 44  1  0
 25 45  1  0
 25 46  1  0
 26 47  1  0
 26 48  1  0
 26 49  1  0
 27 50  1  0
 27 51  1  0
 27 52  1  0
M  END
> <Name>
CHEMBL434183

> <IC50 nM>
7.1

> <Molecule_ChEMBL_ID>
CHEMBL434183

> <Smiles>
C[C@H]1C[C@H](C)OC2(CCC3=Cc4c(cnn4-c4ccc(F)cc4)C[C@@]32C)O1

$$$$
CHEMBL194059
  SciTegic08162514323D

 47 51  0  0  1  0            999 V2000
   -6.9240   -3.6090   -1.7480 F   0  0
   -6.0330   -2.6860   -1.3970 C   0  0
   -4.9610   -3.0270   -0.5530 C   0  0
   -6.1620   -1.3670   -1.8690 C   0  0
   -4.0200   -2.0530   -0.1820 C   0  0
   -5.2230   -0.3910   -1.5000 C   0  0
   -4.1470   -0.7300   -0.6540 C   0  0
   -3.2380    0.2110   -0.2970 N   0  0
   -3.5470    1.4790    0.0900 N   0  0
   -1.8910    0.0410   -0.2640 C   0  0
   -2.4530    2.2310    0.3930 C   0  0
   -1.4510    1.2950    0.1460 C   0  0
   -1.0000   -1.1000   -0.5660 C   0  0
    0.0570    1.5220    0.2680 C   0  0
    0.2970   -0.9570   -0.2170 C   0  0
    0.7950    0.1990    0.6330 C   0  0  1  0  0  0
    1.4140   -1.8610   -0.6350 C   0  0
    2.3340    0.1500    0.3610 C   0  0  1  0  0  0
    0.4670   -0.1430    2.0940 C   0  0
    2.5680   -0.8750   -0.7790 C   0  0
    2.9020    1.4060    0.0510 O   0  0
    3.1130   -0.2030    1.4900 O   0  0
    4.2950    1.3770    0.2830 C   0  0  2  0  0  0
    4.4360    0.2750    1.3380 C   0  0
    4.7770    2.7400    0.7050 C   0  0
    5.7420    3.3300   -0.0200 C   0  0
   -4.8580   -4.0390   -0.1880 H   0  0
   -6.9850   -1.1020   -2.5180 H   0  0
   -3.2010   -2.3340    0.4670 H   0  0
   -5.3380    0.6170   -1.8730 H   0  0
   -2.4200    3.2600    0.7230 H   0  0
   -1.3670   -1.9900   -1.0510 H   0  0
    0.2680    2.3010    1.0000 H   0  0
    0.4060    1.8970   -0.6950 H   0  0
    1.1970   -2.3750   -1.5610 H   0  0
    1.6070   -2.5940    0.1370 H   0  0
   -0.6110   -0.1680    2.2520 H   0  0
    0.8890   -1.1090    2.3670 H   0  0
    0.8870    0.6050    2.7680 H   0  0
    2.4960   -0.3890   -1.7440 H   0  0
    3.5330   -1.3650   -0.7440 H   0  0
    4.7770    1.0780   -0.6350 H   0  0
    4.8050    0.6150    2.2950 H   0  0
    5.0630   -0.5310    0.9840 H   0  0
    4.4220    3.3090    1.5530 H   0  0
    6.1860    4.2990    0.1560 H   0  0
    6.0980    2.7620   -0.8650 H   0  0
  1  2  1  0
  2  3  2  0
  2  4  1  0
  3  5  1  0
  4  6  2  0
  5  7  2  0
  7  8  1  0
  8  9  1  0
  8 10  1  0
  9 11  2  0
 10 12  2  0
 10 13  1  0
 12 14  1  0
 13 15  2  0
 14 16  1  0
 15 17  1  0
 16 18  1  0
 16 19  1  0
 17 20  1  0
 18 21  1  0
 18 22  1  0
 21 23  1  0
 22 24  1  0
 23 25  1  0
 25 26  2  0
  6  7  1  0
 11 12  1  0
 15 16  1  0
 18 20  1  0
 23 24  1  0
  3 27  1  0
  4 28  1  0
  5 29  1  0
  6 30  1  0
 11 31  1  0
 13 32  1  0
 14 33  1  0
 14 34  1  0
 17 35  1  0
 17 36  1  0
 19 37  1  0
 19 38  1  0
 19 39  1  0
 20 40  1  0
 20 41  1  0
 23 42  1  0
 24 43  1  0
 24 44  1  0
 25 45  1  0
 26 46  1  0
 26 47  1  0
M  END
> <Name>
CHEMBL194059

> <IC50 nM>
5.6

> <Molecule_ChEMBL_ID>
CHEMBL194059

> <Smiles>
C=C[C@H]1CO[C@]2(CCC3=Cc4c(cnn4-c4ccc(F)cc4)C[C@@]32C)O1

$$$$
CHEMBL195524
  SciTegic08162514323D

 53 58  0  0  1  0            999 V2000
   -7.8560   -3.6720   -1.1410 F   0  0
   -6.8930   -2.7540   -1.1210 C   0  0
   -5.8260   -2.8710   -0.2150 C   0  0
   -6.9420   -1.6660   -2.0120 C   0  0
   -4.8090   -1.9020   -0.1930 C   0  0
   -5.9240   -0.6950   -1.9920 C   0  0
   -4.8560   -0.8110   -1.0840 C   0  0
   -3.8710    0.1250   -1.0660 N   0  0
   -4.0800    1.4690   -1.1250 N   0  0
   -2.5390   -0.1250   -0.9840 C   0  0
   -2.9300    2.1930   -1.0980 C   0  0
   -2.0040    1.1560   -1.0210 C   0  0
   -1.7400   -1.3630   -0.8890 C   0  0
   -0.4800    1.2970   -0.9900 C   0  0
   -0.4260   -1.2110   -0.6130 C   0  0
    0.1760    0.1230   -0.2070 C   0  0  1  0  0  0
    0.6110   -2.2870   -0.7030 C   0  0
    1.6970   -0.1310   -0.4590 C   0  0  2  0  0  0
   -0.1270    0.3120    1.2870 C   0  0
    1.8300   -1.5000   -1.1760 C   0  0
    2.4920   -0.1230    0.7170 O   0  0
    2.3380    0.8930   -1.1930 O   0  0
    3.8360    0.1760    0.4020 C   0  0  1  0  0  0
    3.7310    0.8420   -0.9750 C   0  0
    4.4220    1.0430    1.4610 C   0  0
    3.8950    2.3280    1.6880 C   0  0
    5.5020    0.5820    2.2350 C   0  0
    4.4470    3.1480    2.6880 C   0  0
    6.0550    1.4020    3.2330 C   0  0
    5.5270    2.6860    3.4590 C   0  0
   -5.7850   -3.7050    0.4710 H   0  0
   -7.7600   -1.5720   -2.7110 H   0  0
   -3.9960   -2.0100    0.5120 H   0  0
   -5.9790    0.1350   -2.6840 H   0  0
   -2.8160    3.2700   -1.1330 H   0  0
   -2.1840   -2.3360   -1.0450 H   0  0
   -0.1950    2.2580   -0.5580 H   0  0
   -0.1370    1.3050   -2.0250 H   0  0
    0.3320   -3.0660   -1.4000 H   0  0
    0.7710   -2.7290    0.2700 H   0  0
   -1.1970    0.4260    1.4510 H   0  0
    0.2340   -0.5370    1.8650 H   0  0
    0.3670    1.2070    1.6680 H   0  0
    1.7680   -1.3710   -2.2480 H   0  0
    2.7560   -2.0200   -0.9750 H   0  0
    4.3890   -0.7520    0.3380 H   0  0
    4.1700    0.2170   -1.7380 H   0  0
    4.1500    1.8360   -1.0490 H   0  0
    3.0640    2.6890    1.0980 H   0  0
    5.9120   -0.4040    2.0650 H   0  0
    4.0430    4.1350    2.8610 H   0  0
    6.8830    1.0470    3.8260 H   0  0
    5.9510    3.3160    4.2270 H   0  0
  1  2  1  0
  2  3  2  0
  2  4  1  0
  3  5  1  0
  4  6  2  0
  5  7  2  0
  7  8  1  0
  8  9  1  0
  8 10  1  0
  9 11  2  0
 10 12  2  0
 10 13  1  0
 12 14  1  0
 13 15  2  0
 14 16  1  0
 15 17  1  0
 16 18  1  0
 16 19  1  0
 17 20  1  0
 18 21  1  0
 18 22  1  0
 21 23  1  0
 22 24  1  0
 23 25  1  0
 25 26  2  0
 25 27  1  0
 26 28  1  0
 27 29  2  0
 28 30  2  0
  6  7  1  0
 11 12  1  0
 15 16  1  0
 18 20  1  0
 23 24  1  0
 29 30  1  0
  3 31  1  0
  4 32  1  0
  5 33  1  0
  6 34  1  0
 11 35  1  0
 13 36  1  0
 14 37  1  0
 14 38  1  0
 17 39  1  0
 17 40  1  0
 19 41  1  0
 19 42  1  0
 19 43  1  0
 20 44  1  0
 20 45  1  0
 23 46  1  0
 24 47  1  0
 24 48  1  0
 26 49  1  0
 27 50  1  0
 28 51  1  0
 29 52  1  0
 30 53  1  0
M  END
> <Name>
CHEMBL195524

> <IC50 nM>
26

> <Molecule_ChEMBL_ID>
CHEMBL195524

> <Smiles>
C[C@]12Cc3cnn(-c4ccc(F)cc4)c3C=C1CC[C@@]21OC[C@@H](c2ccccc2)O1

$$$$
CHEMBL389152
  SciTegic08162514323D

 52 54  0  0  1  0            999 V2000
    1.4960   -0.9160    0.0510 S   0  0
    1.5880   -0.4940   -1.3360 O   0  0
    2.7010   -0.6390    0.8130 O   0  0
    0.2420    0.0570    0.7660 N   0  0
    1.2110   -2.6210    0.0840 C   0  0
    0.3260    1.4980    0.6110 C   0  0  2  0  0  0
   -0.2070   -0.2870    2.1040 C   0  0
    1.6560   -3.3850    1.1780 C   0  0
    0.5350   -3.2400   -0.9820 C   0  0
    0.0330    1.9000   -0.8360 C   0  0
    1.6780    2.0140    1.1040 C   0  0
    1.4240   -4.7720    1.2050 C   0  0
    2.3710   -2.7360    2.3090 C   0  0
    0.3050   -4.6270   -0.9530 C   0  0
    0.0620   -2.4380   -2.1430 C   0  0
   -0.3970    3.3500   -0.9280 C   0  0
    0.7480   -5.3950    0.1390 C   0  0
   -1.6560    3.8400   -0.9630 C   0  0
    0.4490    4.4750   -0.9920 C   0  0
    0.5020   -6.8600    0.1680 C   0  0
   -1.6820    5.2090   -1.0470 C   0  0
   -2.8560    3.0860   -0.9220 C   0  0
   -0.3630    5.6350   -1.0660 N   0  0
   -2.9010    5.9280   -1.0980 C   0  0
   -4.0920    3.7770   -0.9710 C   0  0
   -4.1150    5.1970   -1.0570 C   0  0
   -0.4770    1.8280    1.2720 H   0  0
   -1.1540    0.1680    2.3890 H   0  0
    0.5450    0.0250    2.8300 H   0  0
   -0.3180   -1.3670    2.1840 H   0  0
   -0.7400    1.2640   -1.2640 H   0  0
    0.9100    1.7400   -1.4650 H   0  0
    1.9280    1.5780    2.0720 H   0  0
    2.4670    1.7700    0.3910 H   0  0
    1.6600    3.0960    1.2210 H   0  0
    1.7640   -5.3610    2.0450 H   0  0
    1.9160   -1.8090    2.6540 H   0  0
    3.3960   -2.5160    2.0120 H   0  0
    2.4100   -3.4220    3.1560 H   0  0
   -0.2150   -5.1060   -1.7730 H   0  0
   -0.5450   -1.5740   -1.8710 H   0  0
   -0.5310   -3.0700   -2.8030 H   0  0
    0.9220   -2.0780   -2.7090 H   0  0
    1.5310    4.4920   -0.9880 H   0  0
   -0.0270   -7.2420   -0.7030 H   0  0
   -0.0820   -7.1130    1.0530 H   0  0
    1.4550   -7.3870    0.2360 H   0  0
   -2.8380    2.0080   -0.8570 H   0  0
   -0.0410    6.5720   -1.1230 H   0  0
   -2.9100    7.0060   -1.1640 H   0  0
   -5.0200    3.2250   -0.9390 H   0  0
   -5.0610    5.7190   -1.0940 H   0  0
  1  2  2  0
  1  3  2  0
  1  4  1  0
  1  5  1  0
  4  6  1  0
  4  7  1  0
  5  8  2  0
  5  9  1  0
  6 10  1  0
  6 11  1  0
  8 12  1  0
  8 13  1  0
  9 14  2  0
  9 15  1  0
 10 16  1  0
 12 17  2  0
 16 18  1  0
 16 19  2  0
 17 20  1  0
 18 21  1  0
 18 22  2  0
 19 23  1  0
 21 24  2  0
 22 25  1  0
 24 26  1  0
 14 17  1  0
 21 23  1  0
 25 26  2  0
  6 27  1  0
  7 28  1  0
  7 29  1  0
  7 30  1  0
 10 31  1  0
 10 32  1  0
 11 33  1  0
 11 34  1  0
 11 35  1  0
 12 36  1  0
 13 37  1  0
 13 38  1  0
 13 39  1  0
 14 40  1  0
 15 41  1  0
 15 42  1  0
 15 43  1  0
 19 44  1  0
 20 45  1  0
 20 46  1  0
 20 47  1  0
 22 48  1  0
 23 49  1  0
 24 50  1  0
 25 51  1  0
 26 52  1  0
M  END
> <Name>
CHEMBL389152

> <IC50 nM>
1300

> <Molecule_ChEMBL_ID>
CHEMBL389152

> <Smiles>
Cc1cc(C)c(S(=O)(=O)N(C)C(C)Cc2c[nH]c3ccccc23)c(C)c1

$$$$
CHEMBL243469
  SciTegic08162514323D

 64 68  0  0  0  0            999 V2000
    3.0470   -1.5000   -2.4810 S   0  0
    1.6720   -0.5000   -2.5270 C   0  0
    3.4790   -1.1480   -4.0840 C   0  0
    1.5310    0.1150   -3.7870 C   0  0
    0.7710   -0.3200   -1.3990 C   0  0
    2.5660   -0.2600   -4.6700 C   0  0
    0.4100    1.0640   -4.1560 C   0  0
    1.0390   -0.8280   -0.1740 C   0  0
    0.6150    2.3050   -3.5180 O   0  0
    2.2440   -1.3930   -0.0370 O   0  0
    0.0860   -0.6930    0.9770 C   0  0
   -0.4060    3.2400   -3.7810 C   0  0
    2.7730   -1.6290    1.1840 C   0  0
   -1.3280   -0.4770    0.8420 C   0  0
    0.6720   -0.7790    2.2750 C   0  0
   -0.0700    4.5370   -3.0410 C   0  0
    2.0630   -1.3240    2.3950 C   0  0
    4.0720   -2.1820    1.2300 C   0  0
   -2.0470    0.0610    1.9490 C   0  0
   -2.1090   -0.8280   -0.3970 C   0  0
   -0.0960   -0.3300    3.3890 C   0  0
   -1.0920    5.4730   -3.3050 O   0  0
    2.7270   -1.5740    3.6450 C   0  0
    4.7030   -2.4220    2.4650 C   0  0
   -3.3240    0.4980    1.8090 N   0  0
   -1.4200    0.1230    3.2190 C   0  0
   -3.3500   -0.3240   -0.5590 C   0  0
   -1.5960   -1.7730   -1.4550 C   0  0
    2.1560   -1.3340    4.8320 O   0  0
    4.0350   -2.1110    3.6660 C   0  0
   -3.9900    0.5820    0.4770 C   0  0
    1.8590   -2.4450    5.6660 C   0  0
    4.6480   -2.3340    4.8380 O   0  0
   -3.9120    2.0270   -0.0220 C   0  0
   -5.4590    0.1740    0.6330 C   0  0
    4.3460   -1.5640   -4.5780 H   0  0
   -0.1250    0.2520   -1.5820 H   0  0
    2.6460    0.1000   -5.6880 H   0  0
   -0.5410    0.6580   -3.8090 H   0  0
    0.4160    1.2320   -5.2330 H   0  0
   -1.3480    2.8260   -3.4220 H   0  0
   -0.4430    3.4100   -4.8580 H   0  0
    0.8710    4.9530   -3.4020 H   0  0
   -0.0330    4.3670   -1.9650 H   0  0
    4.5900   -2.4220    0.3140 H   0  0
    0.2730   -0.3010    4.3960 H   0  0
   -0.8520    6.2930   -2.8500 H   0  0
    5.6970   -2.8420    2.4900 H   0  0
   -3.8440    0.7950    2.6110 H   0  0
   -1.9490    0.5120    4.0780 H   0  0
   -3.9120   -0.5720   -1.4490 H   0  0
   -0.6890   -2.3050   -1.1620 H   0  0
   -1.3770   -1.2230   -2.3710 H   0  0
   -2.3570   -2.5180   -1.6900 H   0  0
    1.2360   -3.1390    5.1000 H   0  0
    2.7970   -2.8440    6.0510 H   0  0
    1.2750   -2.0900    6.5140 H   0  0
    5.5490   -2.6880    4.8420 H   0  0
   -2.8810    2.3570   -0.1470 H   0  0
   -4.3950    2.7050    0.6820 H   0  0
   -4.4140    2.1310   -0.9840 H   0  0
   -5.5590   -0.8520    0.9880 H   0  0
   -5.9830    0.2500   -0.3180 H   0  0
   -5.9650    0.8260    1.3460 H   0  0
  1  2  1  0
  1  3  1  0
  2  4  2  0
  2  5  1  0
  3  6  2  0
  4  7  1  0
  5  8  2  0
  7  9  1  0
  8 10  1  0
  8 11  1  0
  9 12  1  0
 10 13  1  0
 11 14  2  0
 11 15  1  0
 12 16  1  0
 13 17  2  0
 13 18  1  0
 14 19  1  0
 14 20  1  0
 15 21  2  0
 16 22  1  0
 17 23  1  0
 18 24  2  0
 19 25  1  0
 19 26  2  0
 20 27  2  0
 20 28  1  0
 23 29  1  0
 23 30  2  0
 25 31  1  0
 29 32  1  0
 30 33  1  0
 31 34  1  0
 31 35  1  0
  4  6  1  0
 15 17  1  0
 21 26  1  0
 24 30  1  0
 27 31  1  0
  3 36  1  0
  5 37  1  0
  6 38  1  0
  7 39  1  0
  7 40  1  0
 12 41  1  0
 12 42  1  0
 16 43  1  0
 16 44  1  0
 18 45  1  0
 21 46  1  0
 22 47  1  0
 24 48  1  0
 25 49  1  0
 26 50  1  0
 27 51  1  0
 28 52  1  0
 28 53  1  0
 28 54  1  0
 32 55  1  0
 32 56  1  0
 32 57  1  0
 33 58  1  0
 34 59  1  0
 34 60  1  0
 34 61  1  0
 35 62  1  0
 35 63  1  0
 35 64  1  0
M  END
> <Name>
CHEMBL243469

> <IC50 nM>
1

> <Molecule_ChEMBL_ID>
CHEMBL243469

> <Smiles>
COc1c(O)ccc2c1-c1ccc3c(c1/C(=C/c1sccc1COCCO)O2)C(C)=CC(C)(C)N3

$$$$
CHEMBL236229
  SciTegic08162514323D

 58 61  0  0  1  0            999 V2000
    1.7230   -2.3810    1.2300 F   0  0
    1.8520   -1.0600    1.5760 C   0  0
    1.7730   -0.9350    2.9390 F   0  0
    3.0640   -0.5900    1.1430 F   0  0
    0.7280   -0.2520    0.9260 C   0  0  3  0  0  0
    1.2710    0.4550   -0.1680 O   0  0
    0.0980    0.7600    1.8830 C   0  0
   -0.2810   -1.2640    0.3870 C   0  0
   -0.8480    1.6350    1.1780 N   0  0
    0.0210   -1.6930   -1.0550 C   0  0  3  0  0  0
   -0.7870    2.9690    1.3500 C   0  0
    1.2950   -2.4840   -1.0510 C   0  0
   -1.1760   -2.5000   -1.6000 C   0  0
    0.1680   -0.4300   -1.9180 C   0  0
   -1.9530    3.7950    1.4430 C   0  0
    0.4920    3.5760    1.4410 C   0  0
    1.3030   -3.9080   -1.2070 C   0  0
    2.5330   -1.8080   -0.8670 C   0  0
   -1.2210   -3.9100   -1.0120 C   0  0
   -0.4730   -0.5820   -3.2990 C   0  0
   -1.8070    5.2110    1.6310 C   0  0
   -3.2750    3.2600    1.3570 C   0  0
    0.6270    4.9730    1.6230 C   0  0
    2.5350   -4.6110   -1.1910 C   0  0
    0.0470   -4.6820   -1.3980 C   0  0
    3.7540   -2.5210   -0.8520 C   0  0
   -2.9650    6.0300    1.7270 C   0  0
   -0.5200    5.7910    1.7190 C   0  0
   -4.3890    4.1310    1.4590 C   0  0
    3.7540   -3.9220   -1.0140 C   0  0
   -4.2290    5.4870    1.6410 N   0  0
    1.7580    1.2130    0.1950 H   0  0
    0.8650    1.3710    2.3590 H   0  0
   -0.4220    0.2500    2.6930 H   0  0
   -0.3440   -2.1330    1.0430 H   0  0
   -1.2970   -0.8750    0.4670 H   0  0
   -1.5350    1.2400    0.5680 H   0  0
   -2.1110   -1.9800   -1.3890 H   0  0
   -1.1150   -2.5760   -2.6880 H   0  0
   -0.2360    0.4400   -1.4000 H   0  0
    1.2150   -0.1440   -2.0080 H   0  0
    1.3950    2.9830    1.3730 H   0  0
    2.5550   -0.7360   -0.7360 H   0  0
   -2.1040   -4.4410   -1.3690 H   0  0
   -1.3130   -3.8570    0.0740 H   0  0
   -0.2770    0.2970   -3.9120 H   0  0
   -0.0860   -1.4650   -3.8070 H   0  0
   -1.5530   -0.6950   -3.2130 H   0  0
   -3.4570    2.2050    1.2150 H   0  0
    1.6090    5.4140    1.6890 H   0  0
    2.5470   -5.6840   -1.3140 H   0  0
    0.0880   -5.6090   -0.8220 H   0  0
   -0.0140   -4.9730   -2.4470 H   0  0
    4.6860   -1.9920   -0.7130 H   0  0
   -2.8730    7.0960    1.8690 H   0  0
   -0.3950    6.8560    1.8590 H   0  0
   -5.3870    3.7230    1.3930 H   0  0
    4.6860   -4.4670   -1.0020 H   0  0
  1  2  1  0
  2  3  1  0
  2  4  1  0
  2  5  1  0
  5  6  1  0
  5  7  1  0
  5  8  1  0
  7  9  1  0
  8 10  1  0
  9 11  1  0
 10 12  1  0
 10 13  1  0
 10 14  1  0
 11 15  2  0
 11 16  1  0
 12 17  2  0
 12 18  1  0
 13 19  1  0
 14 20  1  0
 15 21  1  0
 15 22  1  0
 16 23  2  0
 17 24  1  0
 17 25  1  0
 18 26  2  0
 21 27  1  0
 21 28  2  0
 22 29  2  0
 24 30  2  0
 27 31  2  0
 19 25  1  0
 23 28  1  0
 26 30  1  0
 29 31  1  0
  6 32  1  0
  7 33  1  0
  7 34  1  0
  8 35  1  0
  8 36  1  0
  9 37  1  0
 13 38  1  0
 13 39  1  0
 14 40  1  0
 14 41  1  0
 16 42  1  0
 18 43  1  0
 19 44  1  0
 19 45  1  0
 20 46  1  0
 20 47  1  0
 20 48  1  0
 22 49  1  0
 23 50  1  0
 24 51  1  0
 25 52  1  0
 25 53  1  0
 26 54  1  0
 27 55  1  0
 28 56  1  0
 29 57  1  0
 30 58  1  0
M  END
> <Name>
CHEMBL236229

> <IC50 nM>
21.38

> <Molecule_ChEMBL_ID>
CHEMBL236229

> <Smiles>
CCC1(CC(O)(CNc2cccc3cnccc23)C(F)(F)F)CCCc2ccccc21

$$$$
CHEMBL237496
  SciTegic08162514323D

 53 56  0  0  1  0            999 V2000
    1.4390   -1.9670    1.4880 F   0  0
    1.5250   -0.6410    1.8220 C   0  0
    1.4160   -0.5020    3.1820 F   0  0
    2.7340   -0.1410    1.4080 F   0  0
    0.3960    0.1310    1.1410 C   0  0  3  0  0  0
    0.9360    0.8200    0.0350 O   0  0
   -0.2640    1.1540    2.0660 C   0  0
   -0.5900   -0.9140    0.6150 C   0  0
   -1.2210    2.0080    1.3380 C   0  0
   -0.2870   -1.3440   -0.8260 C   0  0  3  0  0  0
   -0.8540    3.2890    0.8280 C   0  0
   -2.5450    1.5390    1.1390 C   0  0
    0.9860   -2.1350   -0.8200 C   0  0
   -1.4840   -2.1500   -1.3710 C   0  0
   -0.1410   -0.0800   -1.6890 C   0  0
   -1.8360    4.0680    0.1290 C   0  0
    0.4590    3.8030    1.0020 C   0  0
   -3.4730    2.3480    0.4410 C   0  0
    0.9940   -3.5570   -0.9780 C   0  0
    2.2250   -1.4590   -0.6390 C   0  0
   -1.5290   -3.5610   -0.7830 C   0  0
   -3.1190    3.5860   -0.0510 N   0  0
   -1.4790    5.3440   -0.3790 C   0  0
    0.7970    5.0740    0.4900 C   0  0
    2.2270   -4.2600   -0.9610 C   0  0
   -0.2600   -4.3320   -1.1680 C   0  0
    3.4450   -2.1700   -0.6210 C   0  0
   -0.1680    5.8440   -0.1990 C   0  0
    3.4450   -3.5700   -0.7850 C   0  0
    0.6500    1.7440    0.1070 H   0  0
    0.4860    1.7790    2.5470 H   0  0
   -0.7770    0.6540    2.8890 H   0  0
   -0.6230   -1.7790    1.2770 H   0  0
   -1.6150   -0.5530    0.7030 H   0  0
   -2.8480    0.5720    1.5140 H   0  0
   -2.4200   -1.6290   -1.1580 H   0  0
   -1.4240   -2.2250   -2.4590 H   0  0
   -0.5900   -0.2300   -2.6700 H   0  0
   -0.6190    0.7730   -1.2070 H   0  0
    0.9100    0.1660   -1.8380 H   0  0
    1.2210    3.2380    1.5230 H   0  0
   -4.4810    1.9880    0.2910 H   0  0
    2.2460   -0.3870   -0.5080 H   0  0
   -2.4120   -4.0920   -1.1410 H   0  0
   -1.6210   -3.5060    0.3030 H   0  0
   -2.2010    5.9490   -0.9080 H   0  0
    1.7970    5.4630    0.6230 H   0  0
    2.2380   -5.3340   -1.0860 H   0  0
   -0.2210   -5.2580   -0.5940 H   0  0
   -0.3220   -4.6210   -2.2190 H   0  0
    4.3770   -1.6430   -0.4840 H   0  0
    0.0940    6.8150   -0.5880 H   0  0
    4.3770   -4.1150   -0.7730 H   0  0
  1  2  1  0
  2  3  1  0
  2  4  1  0
  2  5  1  0
  5  6  1  0
  5  7  1  0
  5  8  1  0
  7  9  1  0
  8 10  1  0
  9 11  2  0
  9 12  1  0
 10 13  1  0
 10 14  1  0
 10 15  1  0
 11 16  1  0
 11 17  1  0
 12 18  2  0
 13 19  2  0
 13 20  1  0
 14 21  1  0
 16 22  2  0
 16 23  1  0
 17 24  2  0
 19 25  1  0
 19 26  1  0
 20 27  2  0
 23 28  2  0
 25 29  2  0
 18 22  1  0
 21 26  1  0
 24 28  1  0
 27 29  1  0
  6 30  1  0
  7 31  1  0
  7 32  1  0
  8 33  1  0
  8 34  1  0
 12 35  1  0
 14 36  1  0
 14 37  1  0
 15 38  1  0
 15 39  1  0
 15 40  1  0
 17 41  1  0
 18 42  1  0
 20 43  1  0
 21 44  1  0
 21 45  1  0
 23 46  1  0
 24 47  1  0
 25 48  1  0
 26 49  1  0
 26 50  1  0
 27 51  1  0
 28 52  1  0
 29 53  1  0
M  END
> <Name>
CHEMBL237496

> <IC50 nM>
23.99

> <Molecule_ChEMBL_ID>
CHEMBL237496

> <Smiles>
CC1(CC(O)(Cc2ccnc3ccccc23)C(F)(F)F)CCCc2ccccc21

$$$$
CHEMBL236855
  SciTegic08162514323D

 63 67  0  0  1  0            999 V2000
   -2.1430    0.6540    3.7540 F   0  0
   -2.2190   -0.1250    2.6290 C   0  0
   -2.6520   -1.3790    2.9690 F   0  0
   -3.1000    0.4390    1.7420 F   0  0
   -0.8360   -0.2210    1.9820 C   0  0  3  0  0  0
   -0.7050   -1.6150    1.8080 O   0  0
    0.2830    0.2520    2.9100 C   0  0
   -0.7810    0.4390    0.6050 C   0  0
    1.5940    0.2340    2.2320 C   0  0
   -1.1580   -0.5210   -0.5310 C   0  0  3  0  0  0
    2.1540    1.4060    1.6420 C   0  0
    2.3140   -0.9860    2.1660 C   0  0
   -0.0920   -1.5450   -0.7780 C   0  0
   -1.3090    0.3750   -1.7580 C   0  0
   -2.5510   -1.1290   -0.2520 C   0  0
    3.4360    1.3180    0.9980 C   0  0
    1.4710    2.6520    1.6850 C   0  0
    3.5720   -1.0180    1.5190 C   0  0
   -0.4080   -2.9240   -0.9880 C   0  0
    1.2700   -1.1370   -0.8190 C   0  0
   -0.2070    1.4220   -1.8440 C   0  0
   -2.5610    1.2460   -1.6940 C   0  0
   -2.8500   -2.3110   -1.1780 C   0  0
    4.1150    0.1150    0.9490 N   0  0
    3.9980    2.4790    0.4120 C   0  0
    2.0490    3.7970    1.0940 C   0  0
    0.6370   -3.8550   -1.2210 C   0  0
   -1.8110   -3.4160   -0.9670 C   0  0
    2.2990   -2.0740   -1.0550 C   0  0
   -0.7640    2.3540   -2.9120 C   0  0
   -2.2520    2.4530   -2.5780 C   0  0
    3.3090    3.7110    0.4590 C   0  0
    1.9820   -3.4340   -1.2540 C   0  0
   -0.4650   -1.9880    2.6700 H   0  0
    0.3300   -0.3670    3.8050 H   0  0
    0.0780    1.2560    3.2790 H   0  0
    0.2010    0.8790    0.4280 H   0  0
   -1.4100    1.3300    0.5800 H   0  0
    1.9120   -1.8870    2.6030 H   0  0
   -1.3220   -0.2250   -2.6580 H   0  0
   -3.3320   -0.3730   -0.3460 H   0  0
   -2.6020   -1.4790    0.7810 H   0  0
    0.5060    2.7480    2.1640 H   0  0
    4.1190   -1.9470    1.4690 H   0  0
    1.5330   -0.1000   -0.6720 H   0  0
   -0.0820    1.9410   -0.9040 H   0  0
    0.7460    1.0000   -2.1270 H   0  0
   -2.7400    1.5760   -0.6780 H   0  0
   -3.4410    0.7150   -2.0220 H   0  0
   -3.8520   -2.6970   -0.9830 H   0  0
   -2.8440   -1.9790   -2.2170 H   0  0
    4.9610    2.4380   -0.0800 H   0  0
    1.5270    4.7420    1.1270 H   0  0
    0.4040   -4.9000   -1.3750 H   0  0
   -1.9840   -3.8970   -0.0020 H   0  0
   -1.9510   -4.1880   -1.7270 H   0  0
    3.3300   -1.7500   -1.0820 H   0  0
   -0.2750    3.3160   -2.9120 H   0  0
   -0.6310    1.9160   -3.8910 H   0  0
   -2.4710    3.3690   -2.0490 H   0  0
   -2.8480    2.4510   -3.4810 H   0  0
    3.7460    4.5900    0.0080 H   0  0
    2.7700   -4.1520   -1.4340 H   0  0
  1  2  1  0
  2  3  1  0
  2  4  1  0
  2  5  1  0
  5  6  1  0
  5  7  1  0
  5  8  1  0
  7  9  1  0
  8 10  1  0
  9 11  2  0
  9 12  1  0
 10 13  1  0
 10 14  1  0
 10 15  1  0
 11 16  1  0
 11 17  1  0
 12 18  2  0
 13 19  2  0
 13 20  1  0
 14 21  1  0
 14 22  1  0
 15 23  1  0
 16 24  2  0
 16 25  1  0
 17 26  2  0
 19 27  1  0
 19 28  1  0
 20 29  2  0
 21 30  1  0
 22 31  1  0
 25 32  2  0
 27 33  2  0
 18 24  1  0
 23 28  1  0
 26 32  1  0
 29 33  1  0
 30 31  1  0
  6 34  1  0
  7 35  1  0
  7 36  1  0
  8 37  1  0
  8 38  1  0
 12 39  1  0
 14 40  1  0
 15 41  1  0
 15 42  1  0
 17 43  1  0
 18 44  1  0
 20 45  1  0
 21 46  1  0
 21 47  1  0
 22 48  1  0
 22 49  1  0
 23 50  1  0
 23 51  1  0
 25 52  1  0
 26 53  1  0
 27 54  1  0
 28 55  1  0
 28 56  1  0
 29 57  1  0
 30 58  1  0
 30 59  1  0
 31 60  1  0
 31 61  1  0
 32 62  1  0
 33 63  1  0
M  END
> <Name>
CHEMBL236855

> <IC50 nM>
147.91

> <Molecule_ChEMBL_ID>
CHEMBL236855

> <Smiles>
OC(Cc1ccnc2ccccc12)(CC1(C2CCCC2)CCCc2ccccc21)C(F)(F)F

$$$$
CHEMBL4169100
  SciTegic08162514323D

 76 80  0  0  1  0            999 V2000
   -6.4610   -1.8550    0.1050 O   0  0
   -5.2620   -1.7010    0.0430 C   0  0
   -4.4260   -1.8130    1.2440 C   0  0
   -4.5720   -1.3930   -1.2600 C   0  0
   -3.1490   -1.3730    1.2810 C   0  0
   -3.3990   -0.4120   -1.0920 C   0  0
   -2.5180   -0.6680    0.1270 C   0  0
   -2.3460   -1.5960    2.5430 C   0  0
   -1.2210   -0.2500    0.1740 C   0  0
   -0.8650   -1.7580    2.2110 C   0  0
   -0.5700    0.5630   -0.9470 C   0  0  1  0  0  0
   -0.3520   -0.5610    1.3930 C   0  0  1  0  0  0
   -0.8590    2.0120   -0.7700 C   0  0
    0.9410    0.2970   -1.1450 C   0  0
    1.1050   -0.8610    1.0140 C   0  0  1  0  0  0
   -1.5940    2.4510    0.3460 C   0  0
   -0.3990    2.9390   -1.7190 C   0  0
    1.7300    0.2580    0.1740 C   0  0  1  0  0  0
    2.1050   -1.0230    2.1640 C   0  0
   -1.8670    3.8220    0.5140 C   0  0
   -0.6700    4.3090   -1.5530 C   0  0
    3.2150   -0.1990    0.1290 C   0  0  2  0  0  0
    1.6370    1.5960    0.9280 C   0  0
    3.4690   -0.6020    1.5980 C   0  0
   -2.5840    4.2520    1.6000 N   0  0
   -1.4040    4.7500   -0.4380 C   0  0
    4.0780    0.8570   -0.2600 O   0  0
    3.4530   -1.3340   -0.7790 C   0  0
   -2.9730    5.6660    1.7090 C   0  0
   -2.9730    3.3200    2.6680 C   0  0
    3.6450   -2.2520   -1.5120 C   0  0
    3.8850   -3.3790   -2.4080 C   0  0
    3.1720   -4.6110   -1.8540 C   0  0
    3.3380   -3.0310   -3.7910 C   0  0
    5.3910   -3.6310   -2.4860 C   0  0
   -4.8580   -2.2680    2.1270 H   0  0
   -5.2930   -0.9960   -1.9770 H   0  0
   -4.2030   -2.3300   -1.6780 H   0  0
   -2.8360   -0.4730   -2.0200 H   0  0
   -3.7850    0.6070   -1.0290 H   0  0
   -2.4900   -0.7480    3.2130 H   0  0
   -2.6990   -2.4820    3.0740 H   0  0
   -0.2970   -1.8650    3.1350 H   0  0
   -0.7250   -2.6840    1.6500 H   0  0
   -1.0080    0.3050   -1.9040 H   0  0
   -0.3790    0.3160    2.0410 H   0  0
    1.0410   -0.6580   -1.6600 H   0  0
    1.3850    1.0250   -1.8260 H   0  0
    1.1130   -1.7830    0.4470 H   0  0
   -1.9430    1.7270    1.0680 H   0  0
    0.1680    2.6070   -2.5780 H   0  0
    2.1250   -2.0370    2.5330 H   0  0
    1.8400   -0.3850    2.9940 H   0  0
   -0.3150    5.0220   -2.2810 H   0  0
    0.6090    1.8360    1.2010 H   0  0
    2.0160    2.4120    0.3120 H   0  0
    2.2270    1.5660    1.8420 H   0  0
    3.8400    0.2360    2.1760 H   0  0
    4.2070   -1.3850    1.7010 H   0  0
   -1.6060    5.8070   -0.3260 H   0  0
    3.7520    1.1930   -1.1090 H   0  0
   -3.4590    6.0760    0.8240 H   0  0
   -2.0880    6.2680    1.9120 H   0  0
   -3.6560    5.7830    2.5510 H   0  0
   -2.0880    2.7890    3.0200 H   0  0
   -3.4900    3.8710    3.4530 H   0  0
   -3.6660    2.5820    2.2640 H   0  0
    3.5290   -4.8730   -0.8570 H   0  0
    3.3300   -5.4730   -2.5020 H   0  0
    2.0980   -4.4380   -1.7870 H   0  0
    3.8140   -2.1450   -4.2070 H   0  0
    2.2660   -2.8400   -3.7460 H   0  0
    3.4980   -3.8540   -4.4880 H   0  0
    5.9300   -2.7620   -2.8610 H   0  0
    5.6070   -4.4690   -3.1490 H   0  0
    5.7910   -3.8730   -1.5020 H   0  0
  1  2  2  0
  2  3  1  0
  2  4  1  0
  3  5  2  0
  4  6  1  0
  5  7  1  0
  5  8  1  0
  7  9  2  0
  8 10  1  0
  9 11  1  0
  9 12  1  0
 11 13  1  0
 11 14  1  0
 12 15  1  0
 13 16  2  0
 13 17  1  0
 14 18  1  0
 15 19  1  0
 16 20  1  0
 17 21  2  0
 18 22  1  0
 18 23  1  0
 19 24  1  0
 20 25  1  0
 20 26  2  0
 22 27  1  0
 22 28  1  0
 25 29  1  0
 25 30  1  0
 28 31  3  0
 31 32  1  0
 32 33  1  0
 32 34  1  0
 32 35  1  0
  6  7  1  0
 12 10  1  0
 15 18  1  0
 21 26  1  0
 22 24  1  0
  3 36  1  0
  4 37  1  0
  4 38  1  0
  6 39  1  0
  6 40  1  0
  8 41  1  0
  8 42  1  0
 10 43  1  0
 10 44  1  0
 11 45  1  0
 12 46  1  0
 14 47  1  0
 14 48  1  0
 15 49  1  0
 16 50  1  0
 17 51  1  0
 19 52  1  0
 19 53  1  0
 21 54  1  0
 23 55  1  0
 23 56  1  0
 23 57  1  0
 24 58  1  0
 24 59  1  0
 26 60  1  0
 27 61  1  0
 29 62  1  0
 29 63  1  0
 29 64  1  0
 30 65  1  0
 30 66  1  0
 30 67  1  0
 33 68  1  0
 33 69  1  0
 33 70  1  0
 34 71  1  0
 34 72  1  0
 34 73  1  0
 35 74  1  0
 35 75  1  0
 35 76  1  0
M  END
> <Name>
CHEMBL4169100

> <IC50 nM>
205

> <Molecule_ChEMBL_ID>
CHEMBL4169100

> <Smiles>
CN(C)c1cccc([C@H]2C[C@@]3(C)[C@@H](CC[C@@]3(O)C#CC(C)(C)C)[C@@H]3CCC4=CC(=O)CCC4=C32)c1

$$$$
CHEMBL1644757
  SciTegic08162514323D

 59 62  0  0  1  0            999 V2000
   -0.3630   -1.5570   -1.7130 Cl  0  0
    0.2010   -0.6170   -0.3650 C   0  0
    0.6950   -1.2950    0.7850 C   0  0
    0.1790    0.8220   -0.3920 C   0  0
    0.7210   -2.7560    0.8750 C   0  0
    1.1870   -0.5720    1.8890 C   0  0
    0.7240    1.5490    0.7250 C   0  0
   -0.4050    1.5630   -1.5680 C   0  0  2  0  0  0
    1.9450   -3.4690    0.9260 C   0  0
   -0.4980   -3.4840    0.9140 C   0  0
    1.2050    0.8360    1.8650 C   0  0
    0.7990    2.9060    0.7150 N   0  0
   -0.4730    3.0700   -1.3960 C   0  0
   -1.8500    1.1000   -1.8200 C   0  0
    0.4570    1.3260   -2.8160 C   0  0
    3.2710   -3.0570    0.9060 N   0  0
    1.9650   -4.8380    1.0100 C   0  0
   -0.4730   -4.9020    1.0020 C   0  0
    1.7400    1.5260    3.0570 C   0  0
    0.5290    3.7350   -0.4820 C   0  0
   -1.3070    3.7310   -1.9760 O   0  0
   -2.5690    0.7360   -0.5490 C   0  0
    4.0740   -4.2210    0.9830 C   0  0
    0.7670   -5.5940    1.0490 C   0  0
    3.2190   -5.3360    1.0450 C   0  0
    0.0000    5.1000   -0.0210 C   0  0
    1.8380    3.9450   -1.2460 C   0  0
   -3.6080   -0.1090   -0.6190 C   0  0
   -4.2830   -0.5270    0.6600 C   0  0
   -4.0450   -0.6000   -1.9730 C   0  0
    1.5580   -1.0900    2.7640 H   0  0
   -1.4510   -2.9750    0.8790 H   0  0
    1.0740    3.4040    1.5390 H   0  0
   -1.7780    0.2270   -2.4690 H   0  0
   -2.4120    1.8650   -2.3570 H   0  0
    1.5170    1.2520   -2.5700 H   0  0
    0.3380    2.1430   -3.5270 H   0  0
    0.1660    0.4020   -3.3160 H   0  0
    3.6030   -2.1210    0.8520 H   0  0
   -1.3990   -5.4570    1.0310 H   0  0
    2.5370    2.2380    2.8440 H   0  0
    2.1310    0.7890    3.7600 H   0  0
    0.9350    2.0670    3.5550 H   0  0
   -2.1940    1.1900    0.3580 H   0  0
    5.1560   -4.2110    0.9860 H   0  0
    0.7850   -6.6720    1.1150 H   0  0
    3.5170   -6.3750    1.1110 H   0  0
   -0.9400    5.0080    0.5250 H   0  0
   -0.1760    5.7540   -0.8770 H   0  0
    0.7190    5.5920    0.6310 H   0  0
    2.2930    3.0000   -1.5430 H   0  0
    2.5600    4.4850   -0.6330 H   0  0
    1.6660    4.5310   -2.1480 H   0  0
   -4.1940    0.2110    1.4590 H   0  0
   -3.8520   -1.4610    1.0200 H   0  0
   -5.3440   -0.6970    0.4810 H   0  0
   -3.2850   -1.2580   -2.3930 H   0  0
   -5.0100   -1.1010   -1.8930 H   0  0
   -4.1640    0.2460   -2.6520 H   0  0
  1  2  1  0
  2  3  2  0
  2  4  1  0
  3  5  1  0
  3  6  1  0
  4  7  2  0
  4  8  1  0
  5  9  2  0
  5 10  1  0
  6 11  2  0
  7 12  1  0
  8 13  1  0
  8 14  1  0
  8 15  1  0
  9 16  1  0
  9 17  1  0
 10 18  2  0
 11 19  1  0
 12 20  1  0
 13 21  2  0
 14 22  1  0
 16 23  1  0
 17 24  2  0
 17 25  1  0
 20 26  1  0
 20 27  1  0
 22 28  2  0
 28 29  1  0
 28 30  1  0
  7 11  1  0
 13 20  1  0
 18 24  1  0
 23 25  2  0
  6 31  1  0
 10 32  1  0
 12 33  1  0
 14 34  1  0
 14 35  1  0
 15 36  1  0
 15 37  1  0
 15 38  1  0
 16 39  1  0
 18 40  1  0
 19 41  1  0
 19 42  1  0
 19 43  1  0
 22 44  1  0
 23 45  1  0
 24 46  1  0
 25 47  1  0
 26 48  1  0
 26 49  1  0
 26 50  1  0
 27 51  1  0
 27 52  1  0
 27 53  1  0
 29 54  1  0
 29 55  1  0
 29 56  1  0
 30 57  1  0
 30 58  1  0
 30 59  1  0
M  END
> <Name>
CHEMBL1644757

> <IC50 nM>
64

> <Molecule_ChEMBL_ID>
CHEMBL1644757

> <Smiles>
CC(C)=CCC1(C)C(=O)C(C)(C)Nc2c(C)cc(-c3cccc4cc[nH]c34)c(Cl)c21

$$$$
CHEMBL4203199
  SciTegic08162514323D

 64 67  0  0  1  0            999 V2000
   -0.0720    5.3790   -3.0960 F   0  0
   -1.0450    5.1760   -4.0400 C   0  0
   -0.5630    5.5250   -5.2750 F   0  0
   -1.4920    3.7390   -4.0370 C   0  0
   -2.2650    6.0360   -3.7080 C   0  0
   -2.6410    3.4450   -3.7980 O   0  0
   -0.5740    2.7660   -4.3080 N   0  0
   -0.9940    1.3570   -4.3110 C   0  0  2  0  0  0
   -1.2640    0.8630   -2.8890 C   0  0  2  0  0  0
    0.0170    0.4850   -5.0560 C   0  0
   -0.0360    0.7480   -2.1860 O   0  0
   -1.9600   -0.4500   -2.8890 C   0  0
   -0.0720    0.2920   -0.9270 C   0  0
   -3.3660   -0.5020   -2.8890 C   0  0
   -1.2140   -1.6420   -2.8890 C   0  0
   -1.2960    0.3100   -0.2030 C   0  0
    1.1140   -0.2090   -0.3220 C   0  0
   -4.0240   -1.7440   -2.8890 C   0  0
   -1.8730   -2.8840   -2.8890 C   0  0
   -1.3240   -0.1750    1.1300 C   0  0
    1.0890   -0.6940    1.0100 C   0  0
   -3.2770   -2.9350   -2.8890 C   0  0
   -0.1500   -0.6540    1.6860 C   0  0
   -2.4880   -0.1910    1.9080 C   0  0
   -0.6230   -0.9890    2.8940 N   0  0
   -1.9550   -0.7410    3.0640 N   0  0
    0.1840   -1.5550    3.9210 C   0  0
    1.4230   -1.0670    4.1760 C   0  0
   -0.3340   -2.6880    4.7190 C   0  0
    2.2300   -1.5970    5.1660 N   0  0
    0.4400   -3.2140    5.6880 C   0  0
    1.7880   -2.6570    5.9370 C   0  0
    3.5680   -1.0200    5.3920 C   0  0
    2.4850   -3.1300    6.8060 O   0  0
    4.6460   -1.8430    4.6860 C   0  0
    6.0550   -1.3030    4.9300 C   0  0
   -2.0210    7.0980   -3.6920 H   0  0
   -2.6680    5.7710   -2.7310 H   0  0
   -3.0540    5.8870   -4.4450 H   0  0
    0.3760    3.0100   -4.5040 H   0  0
   -1.9230    1.4360   -4.8750 H   0  0
   -1.8590    1.5900   -2.3360 H   0  0
    0.2580    0.8910   -6.0380 H   0  0
   -0.3740   -0.5230   -5.1980 H   0  0
    0.9460    0.4050   -4.4920 H   0  0
   -3.9450    0.4100   -2.8890 H   0  0
   -0.1340   -1.6100   -2.8890 H   0  0
   -2.1910    0.6920   -0.6730 H   0  0
    2.0400   -0.2200   -0.8780 H   0  0
   -5.1030   -1.7830   -2.8890 H   0  0
   -1.2990   -3.7990   -2.8890 H   0  0
    1.9790   -1.0770    1.4860 H   0  0
   -3.7830   -3.8900   -2.8890 H   0  0
   -3.5090    0.1160    1.7200 H   0  0
    1.7790   -0.2370    3.5790 H   0  0
   -1.3190   -3.0950    4.5350 H   0  0
    0.0780   -4.0410    6.2810 H   0  0
    3.5780    0.0110    5.0390 H   0  0
    3.7610   -0.9710    6.4640 H   0  0
    4.5800   -2.8920    4.9740 H   0  0
    4.4400   -1.9130    3.6180 H   0  0
    6.7970   -1.9150    4.4160 H   0  0
    6.1400   -0.2740    4.5820 H   0  0
    6.2940   -1.3160    5.9940 H   0  0
  1  2  1  0
  2  3  1  0
  2  4  1  0
  2  5  1  0
  4  6  2  0
  4  7  1  0
  7  8  1  0
  8  9  1  0
  8 10  1  0
  9 11  1  0
  9 12  1  0
 11 13  1  0
 12 14  2  0
 12 15  1  0
 13 16  2  0
 13 17  1  0
 14 18  1  0
 15 19  2  0
 16 20  1  0
 17 21  2  0
 18 22  2  0
 20 23  2  0
 20 24  1  0
 23 25  1  0
 24 26  2  0
 25 27  1  0
 27 28  2  0
 27 29  1  0
 28 30  1  0
 29 31  2  0
 30 32  1  0
 30 33  1  0
 32 34  2  0
 33 35  1  0
 35 36  1  0
 19 22  1  0
 21 23  1  0
 25 26  1  0
 31 32  1  0
  5 37  1  0
  5 38  1  0
  5 39  1  0
  7 40  1  0
  8 41  1  0
  9 42  1  0
 10 43  1  0
 10 44  1  0
 10 45  1  0
 14 46  1  0
 15 47  1  0
 16 48  1  0
 17 49  1  0
 18 50  1  0
 19 51  1  0
 21 52  1  0
 22 53  1  0
 24 54  1  0
 28 55  1  0
 29 56  1  0
 31 57  1  0
 33 58  1  0
 33 59  1  0
 35 60  1  0
 35 61  1  0
 36 62  1  0
 36 63  1  0
 36 64  1  0
M  END
> <Name>
CHEMBL4203199

> <IC50 nM>
4.7

> <Molecule_ChEMBL_ID>
CHEMBL4203199

> <Smiles>
CCCn1cc(-n2ncc3cc(O[C@H](c4ccccc4)[C@H](C)NC(=O)C(C)(F)F)ccc32)ccc1=O

$$$$
CHEMBL4202965
  SciTegic08162514323D

 63 66  0  0  1  0            999 V2000
   -5.4140    0.6760    1.4060 F   0  0
   -5.5000   -0.6540    1.7260 C   0  0
   -6.5550   -1.2190    1.0550 F   0  0
   -4.2170   -1.3630    1.3850 C   0  0
   -5.7170   -0.8050    3.2320 C   0  0
   -3.5650   -1.9160    2.2380 O   0  0
   -3.8010   -1.3730    0.0840 N   0  0
   -2.5510   -2.0610   -0.2700 C   0  0  2  0  0  0
   -1.3770   -1.0800   -0.3090 C   0  0  2  0  0  0
   -2.7050   -2.8480   -1.5700 C   0  0
   -0.2300   -1.7340   -0.8300 O   0  0
   -1.0700   -0.5410    1.0430 C   0  0
   -3.7990   -3.9140   -1.4900 C   0  0
   -2.8540   -1.9410   -2.7930 C   0  0
    0.9040   -1.0290   -0.9320 C   0  0
   -1.3340    0.8070    1.3400 C   0  0
   -0.5120   -1.3810    2.0250 C   0  0
    2.1560   -1.7050   -0.9610 C   0  0
    0.8500    0.3910   -1.0080 C   0  0
   -1.0430    1.3160    2.6170 C   0  0
   -0.2210   -0.8710    3.3030 C   0  0
    3.3520   -0.9470   -1.0680 C   0  0
    2.0450    1.1460   -1.1150 C   0  0
   -0.4860    0.4780    3.5980 C   0  0
    3.2600    0.4320   -1.1410 C   0  0
    4.6210   -1.5370   -1.1060 C   0  0
    4.5660    0.7150   -1.2290 N   0  0
    5.3810   -0.3830   -1.2110 N   0  0
    5.0740    2.0390   -1.3300 C   0  0
    4.5860    3.0310   -0.5490 C   0  0
    6.1560    2.3520   -2.3010 C   0  0
    5.1000    4.3090   -0.6700 N   0  0
    6.6110    3.5570   -2.3850 N   0  0
    6.1110    4.5720   -1.5860 C   0  0
    4.5630    5.3850    0.1820 C   0  0
    6.5650    5.6900   -1.6950 O   0  0
   -6.6330   -0.3140    3.5610 H   0  0
   -4.8870   -0.3670    3.7870 H   0  0
   -5.7850   -1.8560    3.5100 H   0  0
   -4.3420   -0.9160   -0.6230 H   0  0
   -2.3630   -2.8570    0.4530 H   0  0
   -1.6350   -0.2600   -0.9770 H   0  0
   -1.7560   -3.2930   -1.8670 H   0  0
   -3.8320   -4.5310   -2.3870 H   0  0
   -4.7770   -3.4510   -1.3670 H   0  0
   -3.6310   -4.5720   -0.6390 H   0  0
   -2.9000   -2.5330   -3.7070 H   0  0
   -3.7560   -1.3340   -2.7170 H   0  0
   -2.0040   -1.2660   -2.8770 H   0  0
   -1.7620    1.4570    0.5900 H   0  0
   -0.3070   -2.4180    1.8030 H   0  0
    2.1860   -2.7830   -0.9020 H   0  0
   -0.1040    0.8960   -0.9860 H   0  0
   -1.2480    2.3520    2.8440 H   0  0
    0.2050   -1.5160    4.0570 H   0  0
    2.0220    2.2250   -1.1760 H   0  0
   -0.2640    0.8690    4.5800 H   0  0
    4.9630   -2.5650   -1.0670 H   0  0
    3.7990    2.8160    0.1600 H   0  0
    6.5530    1.5640   -2.9260 H   0  0
    3.7720    5.0760    0.8650 H   0  0
    4.1640    6.1780   -0.4510 H   0  0
    5.3710    5.8090    0.7770 H   0  0
  1  2  1  0
  2  3  1  0
  2  4  1  0
  2  5  1  0
  4  6  2  0
  4  7  1  0
  8  7  1  0
  8  9  1  0
  8 10  1  0
  9 11  1  0
  9 12  1  0
 10 13  1  0
 10 14  1  0
 11 15  1  0
 12 16  2  0
 12 17  1  0
 15 18  2  0
 15 19  1  0
 16 20  1  0
 17 21  2  0
 18 22  1  0
 19 23  2  0
 20 24  2  0
 22 25  2  0
 22 26  1  0
 25 27  1  0
 26 28  2  0
 27 29  1  0
 29 30  2  0
 29 31  1  0
 30 32  1  0
 31 33  2  0
 32 34  1  0
 32 35  1  0
 34 36  2  0
 21 24  1  0
 23 25  1  0
 27 28  1  0
 33 34  1  0
  5 37  1  0
  5 38  1  0
  5 39  1  0
  7 40  1  0
  8 41  1  0
  9 42  1  0
 10 43  1  0
 13 44  1  0
 13 45  1  0
 13 46  1  0
 14 47  1  0
 14 48  1  0
 14 49  1  0
 16 50  1  0
 17 51  1  0
 18 52  1  0
 19 53  1  0
 20 54  1  0
 21 55  1  0
 23 56  1  0
 24 57  1  0
 26 58  1  0
 30 59  1  0
 31 60  1  0
 35 61  1  0
 35 62  1  0
 35 63  1  0
M  END
> <Name>
CHEMBL4202965

> <IC50 nM>
51

> <Molecule_ChEMBL_ID>
CHEMBL4202965

> <Smiles>
CC(C)[C@H](NC(=O)C(C)(F)F)[C@H](Oc1ccc2c(cnn2-c2cnc(=O)n(C)c2)c1)c1ccccc1

$$$$
CHEMBL4211898
  SciTegic08162514323D

 64 67  0  0  1  0            999 V2000
   -2.4200    2.9820    2.7030 Cl  0  0
   -1.7700    1.4100    2.4920 C   0  0
   -1.8590    0.7730    1.2400 C   0  0
   -1.1450    0.7540    3.5680 C   0  0
   -1.3260   -0.5160    1.0660 C   0  0
   -0.6130   -0.5350    3.3940 C   0  0
   -0.7030   -1.1700    2.1440 C   0  0
   -1.4200   -1.1880   -0.2580 C   0  0  1  0  0  0
   -0.2150   -1.8950   -0.5160 O   0  0
   -2.6020   -2.1540   -0.3150 C   0  0  1  0  0  0
    0.9200   -1.1900   -0.6170 C   0  0
   -3.8770   -1.4360   -0.1940 N   0  0
   -2.5840   -3.0350   -1.5650 C   0  0
    2.1700   -1.8650   -0.6470 C   0  0
    0.8650    0.2300   -0.6940 C   0  0
   -4.4770   -1.3340    1.0290 C   0  0
   -3.6900   -4.0900   -1.5590 C   0  0
   -2.5530   -2.2210   -2.8600 C   0  0
    3.3670   -1.1080   -0.7540 C   0  0
    2.0590    0.9860   -0.8010 C   0  0
   -3.9630   -1.8300    2.0040 O   0  0
   -5.7830   -0.5940    1.1350 C   0  0
    3.2750    0.2710   -0.8280 C   0  0
    4.6370   -1.6970   -0.7910 C   0  0
   -5.6290    0.7110    0.7420 F   0  0
   -6.7400   -1.1930    0.3570 F   0  0
   -6.2170   -0.6370    2.5990 C   0  0
    4.5820    0.5550   -0.9140 N   0  0
    5.3960   -0.5410   -0.8970 N   0  0
    5.0900    1.8790   -1.0160 C   0  0
    4.6020    2.8710   -0.2290 C   0  0
    6.1640    2.1800   -1.9900 C   0  0
    5.0760    4.1680   -0.3070 N   0  0
    6.6350    3.4390   -2.0740 C   0  0
    6.0760    4.4960   -1.2010 C   0  0
    4.5000    5.1990    0.5780 C   0  0
    6.5000    5.6270   -1.2790 O   0  0
   -2.3360    1.2710    0.4060 H   0  0
   -1.0670    1.2320    4.5350 H   0  0
   -0.1370   -1.0370    4.2210 H   0  0
   -0.2930   -2.1620    2.0170 H   0  0
   -1.5490   -0.4380   -1.0370 H   0  0
   -2.5310   -2.8970    0.4820 H   0  0
   -4.3050   -1.0240   -1.0000 H   0  0
   -1.6080   -3.5000   -1.6960 H   0  0
    2.1990   -2.9440   -0.5880 H   0  0
   -0.0900    0.7360   -0.6720 H   0  0
   -3.6000   -4.7780   -2.4010 H   0  0
   -4.6720   -3.6190   -1.6170 H   0  0
   -3.6560   -4.6800   -0.6430 H   0  0
   -2.5270   -2.8770   -3.7270 H   0  0
   -3.4280   -1.5720   -2.9280 H   0  0
   -1.6660   -1.5860   -2.8930 H   0  0
    2.0370    2.0640   -0.8620 H   0  0
    4.9790   -2.7230   -0.7520 H   0  0
   -7.1620   -0.1170    2.7600 H   0  0
   -5.4690   -0.1680    3.2380 H   0  0
   -6.3420   -1.6660    2.9330 H   0  0
    3.8180    2.6250    0.4760 H   0  0
    6.5680    1.4080   -2.6270 H   0  0
    7.4180    3.6780   -2.7800 H   0  0
    3.7190    4.8440    1.2480 H   0  0
    4.0800    5.9980   -0.0310 H   0  0
    5.2930    5.6290    1.1890 H   0  0
  1  2  1  0
  2  3  2  0
  2  4  1  0
  3  5  1  0
  4  6  2  0
  5  7  2  0
  5  8  1  0
  8  9  1  0
  8 10  1  0
  9 11  1  0
 10 12  1  0
 10 13  1  0
 11 14  2  0
 11 15  1  0
 12 16  1  0
 13 17  1  0
 13 18  1  0
 14 19  1  0
 15 20  2  0
 16 21  2  0
 16 22  1  0
 19 23  2  0
 19 24  1  0
 22 25  1  0
 22 26  1  0
 22 27  1  0
 23 28  1  0
 24 29  2  0
 28 30  1  0
 30 31  2  0
 30 32  1  0
 31 33  1  0
 32 34  2  0
 33 35  1  0
 33 36  1  0
 35 37  2  0
  6  7  1  0
 20 23  1  0
 28 29  1  0
 34 35  1  0
  3 38  1  0
  4 39  1  0
  6 40  1  0
  7 41  1  0
  8 42  1  0
 10 43  1  0
 12 44  1  0
 13 45  1  0
 14 46  1  0
 15 47  1  0
 17 48  1  0
 17 49  1  0
 17 50  1  0
 18 51  1  0
 18 52  1  0
 18 53  1  0
 20 54  1  0
 24 55  1  0
 27 56  1  0
 27 57  1  0
 27 58  1  0
 31 59  1  0
 32 60  1  0
 34 61  1  0
 36 62  1  0
 36 63  1  0
 36 64  1  0
M  END
> <Name>
CHEMBL4211898

> <IC50 nM>
1.7

> <Molecule_ChEMBL_ID>
CHEMBL4211898

> <Smiles>
CC(C)[C@H](NC(=O)C(C)(F)F)[C@H](Oc1ccc2c(cnn2-c2ccc(=O)n(C)c2)c1)c1cccc(Cl)c1

$$$$
CHEMBL4209089
  SciTegic08162514323D

 46 47  0  0  1  0            999 V2000
   -0.2540   -4.0820    1.8810 Cl  0  0
   -1.5230   -2.9280    1.8240 C   0  0
   -1.2400   -1.5450    1.8590 C   0  0
   -2.8570   -3.3710    1.7400 C   0  0
    0.0020   -1.1070    1.9380 O   0  0
   -2.2970   -0.6150    1.8130 C   0  0
   -3.9040   -2.4330    1.6950 C   0  0
    0.3260    0.0980    1.2600 C   0  0  2  0  0  0
   -3.6290   -1.0550    1.7310 C   0  0
   -5.2700   -2.8850    1.6090 C   0  0
   -0.1480    0.0200   -0.1440 C   0  0
    1.8360    0.3300    1.3320 C   0  0  1  0  0  0
   -6.3690   -3.2500    1.5410 N   0  0
    0.1090   -1.1270   -0.9220 C   0  0
   -0.8610    1.0900   -0.7150 C   0  0
    2.1860    1.6740    0.8500 N   0  0
    2.4060    0.0860    2.7310 C   0  0
   -0.3180   -1.2190   -2.2150 N   0  0
   -1.2950    0.9830   -2.0450 C   0  0
    2.4220    1.8670   -0.4820 C   0  0
   -1.0120   -0.1850   -2.7790 C   0  0
    2.3460    0.9440   -1.2560 O   0  0
    2.7790    3.2500   -0.9590 C   0  0
   -1.4180   -0.2890   -4.0290 O   0  0
    2.7990    3.2950   -2.3300 F   0  0
    1.8790    4.1680   -0.4840 F   0  0
    4.1720    3.5760   -0.4180 C   0  0
   -1.1890   -1.5150   -4.7050 C   0  0
   -3.0740   -4.4320    1.7130 H   0  0
   -2.0840    0.4420    1.8400 H   0  0
   -0.2130    0.9160    1.7400 H   0  0
   -4.4260   -0.3240    1.6950 H   0  0
    2.3560   -0.2790    0.5920 H   0  0
    0.6580   -1.9530   -0.4900 H   0  0
   -1.0720    1.9810   -0.1410 H   0  0
    2.2500    2.4420    1.4880 H   0  0
    3.4770    0.2830    2.7740 H   0  0
    2.2440   -0.9470    3.0350 H   0  0
    1.9180    0.7310    3.4630 H   0  0
   -1.8440    1.7930   -2.5020 H   0  0
    4.5200    4.5530   -0.7540 H   0  0
    4.8970    2.8320   -0.7500 H   0  0
    4.1720    3.5780    0.6720 H   0  0
   -0.1130   -1.6580   -4.8010 H   0  0
   -1.7360   -2.3010   -4.1840 H   0  0
   -1.6050   -1.4330   -5.7110 H   0  0
  1  2  1  0
  2  3  2  0
  2  4  1  0
  3  5  1  0
  3  6  1  0
  4  7  2  0
  8  5  1  0
  6  9  2  0
  7 10  1  0
  8 11  1  0
  8 12  1  0
 10 13  3  0
 11 14  2  0
 11 15  1  0
 12 16  1  0
 12 17  1  0
 14 18  1  0
 15 19  2  0
 16 20  1  0
 18 21  2  0
 20 22  2  0
 20 23  1  0
 21 24  1  0
 23 25  1  0
 23 26  1  0
 23 27  1  0
 24 28  1  0
  7  9  1  0
 19 21  1  0
  4 29  1  0
  6 30  1  0
  8 31  1  0
  9 32  1  0
 12 33  1  0
 14 34  1  0
 15 35  1  0
 16 36  1  0
 17 37  1  0
 17 38  1  0
 17 39  1  0
 19 40  1  0
 27 41  1  0
 27 42  1  0
 27 43  1  0
 28 44  1  0
 28 45  1  0
 28 46  1  0
M  END
> <Name>
CHEMBL4209089

> <IC50 nM>
16

> <Molecule_ChEMBL_ID>
CHEMBL4209089

> <Smiles>
COc1ccc([C@@H](Oc2ccc(C#N)cc2Cl)[C@H](C)NC(=O)C(C)(F)F)cn1

$$$$
CHEMBL1254994
  SciTegic08162514323D

 51 53  0  0  1  0            999 V2000
    4.3520   -4.2270   -1.8980 F   0  0
    3.1490   -3.9550   -1.4000 C   0  0
    2.9060   -2.7210   -0.7730 C   0  0
    2.1150   -4.9040   -1.5000 C   0  0
    1.6350   -2.4340   -0.2440 C   0  0
    0.8460   -4.6170   -0.9730 C   0  0
    0.6000   -3.3850   -0.3440 C   0  0
    1.3930   -1.1250    0.4160 C   0  0
   -0.5960   -3.1270    0.1470 O   0  0
    0.6880   -0.5140   -0.7950 C   0  0
    2.7030   -0.4140    0.7560 C   0  0
    0.4670   -1.2670    1.6270 C   0  0
   -1.6190   -4.0920   -0.0490 C   0  0
    0.4810    0.9940   -0.6600 C   0  0  1  0  0  0
    1.7290    1.6270   -0.8300 O   0  0
   -0.4300    1.4140   -1.8140 C   0  0
   -0.0780    1.3930    0.7050 C   0  0
   -0.0080    0.8150   -2.9730 F   0  0
   -0.3830    2.7780   -1.9630 F   0  0
   -1.7190    1.0290   -1.5450 F   0  0
   -0.5160    2.7990    0.7070 N   0  0
   -1.8160    3.2680    0.7130 C   0  0
    0.3070    3.9280    0.7030 C   0  0
   -1.8520    4.6600    0.7090 C   0  0
   -3.0430    2.5550    0.7210 C   0  0
   -0.5410    5.0370    0.7030 C   0  0
   -3.0100    5.4040    0.7130 N   0  0
   -4.2580    3.2950    0.7230 C   0  0
   -4.2110    4.7170    0.7190 C   0  0
    3.7010   -1.9920   -0.6970 H   0  0
    2.2950   -5.8530   -1.9800 H   0  0
    0.0550   -5.3500   -1.0510 H   0  0
   -0.2600   -1.0170   -0.9840 H   0  0
    1.2270   -0.7480   -1.7130 H   0  0
    3.3730   -1.0510    1.3340 H   0  0
    2.5120    0.4860    1.3420 H   0  0
    3.2270   -0.1150   -0.1520 H   0  0
    0.5940   -2.2300    2.1230 H   0  0
   -0.5760   -1.1820    1.3240 H   0  0
    0.6680   -0.4860    2.3590 H   0  0
   -1.7580   -4.2280   -1.1210 H   0  0
   -1.3610   -4.9840    0.5220 H   0  0
   -2.5490   -3.6910    0.3590 H   0  0
    1.9790    2.0000    0.0290 H   0  0
    0.7070    1.2560    1.4490 H   0  0
   -0.9140    0.7520    0.9830 H   0  0
    1.3890    3.9040    0.6970 H   0  0
   -3.0590    1.4750    0.7250 H   0  0
   -0.1950    6.0650    0.7010 H   0  0
   -5.2090    2.7810    0.7290 H   0  0
   -5.1370    5.2760    0.7210 H   0  0
  1  2  1  0
  2  3  2  0
  2  4  1  0
  3  5  1  0
  4  6  2  0
  5  7  2  0
  5  8  1  0
  7  9  1  0
  8 10  1  0
  8 11  1  0
  8 12  1  0
  9 13  1  0
 10 14  1  0
 14 15  1  0
 14 16  1  0
 14 17  1  0
 16 18  1  0
 16 19  1  0
 16 20  1  0
 17 21  1  0
 21 22  1  0
 21 23  1  0
 22 24  1  0
 22 25  2  0
 23 26  2  0
 24 27  2  0
 25 28  1  0
 27 29  1  0
  6  7  1  0
 24 26  1  0
 28 29  2  0
  3 30  1  0
  4 31  1  0
  6 32  1  0
 10 33  1  0
 10 34  1  0
 11 35  1  0
 11 36  1  0
 11 37  1  0
 12 38  1  0
 12 39  1  0
 12 40  1  0
 13 41  1  0
 13 42  1  0
 13 43  1  0
 15 44  1  0
 17 45  1  0
 17 46  1  0
 23 47  1  0
 25 48  1  0
 26 49  1  0
 28 50  1  0
 29 51  1  0
M  END
> <Name>
CHEMBL1254994

> <IC50 nM>
2.8

> <Molecule_ChEMBL_ID>
CHEMBL1254994

> <Smiles>
COc1ccc(F)cc1C(C)(C)CC(O)(Cn1ccc2ncccc21)C(F)(F)F

$$$$
CHEMBL1254735
  SciTegic08162514323D

 51 53  0  0  1  0            999 V2000
   -5.6170    2.4280    2.0310 F   0  0
   -4.9940    1.4240    1.4160 C   0  0
   -3.7150    1.6210    0.8670 C   0  0
   -5.6150    0.1680    1.3130 C   0  0
   -3.0570    0.5610    0.2170 C   0  0
   -4.9590   -0.8900    0.6640 C   0  0
   -3.6800   -0.6990    0.1130 C   0  0
   -1.7030    0.7790   -0.3590 C   0  0
   -3.0720   -1.6990   -0.4940 O   0  0
   -0.9790    0.0490    0.7730 C   0  0
   -1.3520    2.2660   -0.4220 C   0  0
   -1.5450    0.0780   -1.7090 C   0  0
   -3.8320   -2.8630   -0.7810 C   0  0
    0.5310    0.2810    0.7540 C   0  0  1  0  0  0
    0.7790    1.6040    1.1740 O   0  0
    1.1330   -0.6700    1.7890 C   0  0
    1.1390    0.1000   -0.6370 C   0  0
    1.1370   -1.9450    1.2890 F   0  0
    0.3810   -0.6330    2.9360 F   0  0
    2.4180   -0.2850    2.0720 F   0  0
    2.6520    0.0740   -0.5760 C   0  0
    3.4080   -1.1290   -0.5740 N   0  0
    3.5410    1.1640   -0.5120 C   0  0
    4.7440   -0.7640   -0.5120 C   0  0
    4.7700    0.6080   -0.4770 C   0  0
    5.9450   -1.5230   -0.4820 C   0  0
    6.0240    1.2500   -0.4060 C   0  0
    7.1820   -0.8120   -0.4140 C   0  0
    7.2270    0.5760   -0.3750 N   0  0
   -3.2360    2.5860    0.9470 H   0  0
   -6.6000    0.0140    1.7320 H   0  0
   -5.4400   -1.8530    0.5860 H   0  0
   -1.2050   -1.0150    0.7500 H   0  0
   -1.4000    0.3260    1.7400 H   0  0
   -2.1150    2.8420   -0.9430 H   0  0
   -0.4060    2.4160   -0.9430 H   0  0
   -1.2480    2.6800    0.5820 H   0  0
   -2.4860    0.0350   -2.2560 H   0  0
   -1.1910   -0.9430   -1.5720 H   0  0
   -0.8200    0.6020   -2.3320 H   0  0
   -4.0570   -3.3650    0.1600 H   0  0
   -4.6880   -2.5720   -1.3890 H   0  0
   -3.2130   -3.5350   -1.3770 H   0  0
    1.1970    2.0670    0.4300 H   0  0
    0.8160    0.8970   -1.3070 H   0  0
    0.7790   -0.8200   -1.0980 H   0  0
    3.0490   -2.0550   -0.6130 H   0  0
    3.2890    2.2170   -0.4960 H   0  0
    5.9240   -2.6030   -0.5140 H   0  0
    6.0530    2.3300   -0.3770 H   0  0
    8.1080   -1.3690   -0.3910 H   0  0
  1  2  1  0
  2  3  2  0
  2  4  1  0
  3  5  1  0
  4  6  2  0
  5  7  2  0
  5  8  1  0
  7  9  1  0
  8 10  1  0
  8 11  1  0
  8 12  1  0
  9 13  1  0
 10 14  1  0
 14 15  1  0
 14 16  1  0
 14 17  1  0
 16 18  1  0
 16 19  1  0
 16 20  1  0
 17 21  1  0
 21 22  1  0
 21 23  2  0
 22 24  1  0
 23 25  1  0
 24 26  1  0
 25 27  1  0
 26 28  2  0
 27 29  2  0
  6  7  1  0
 24 25  2  0
 28 29  1  0
  3 30  1  0
  4 31  1  0
  6 32  1  0
 10 33  1  0
 10 34  1  0
 11 35  1  0
 11 36  1  0
 11 37  1  0
 12 38  1  0
 12 39  1  0
 12 40  1  0
 13 41  1  0
 13 42  1  0
 13 43  1  0
 15 44  1  0
 17 45  1  0
 17 46  1  0
 22 47  1  0
 23 48  1  0
 26 49  1  0
 27 50  1  0
 28 51  1  0
M  END
> <Name>
CHEMBL1254735

> <IC50 nM>
7.3

> <Molecule_ChEMBL_ID>
CHEMBL1254735

> <Smiles>
COc1ccc(F)cc1C(C)(C)CC(O)(Cc1cc2cnccc2[nH]1)C(F)(F)F

$$$$
CHEMBL3421880
  SciTegic08162514323D

 47 49  0  0  1  0            999 V2000
   -5.3070   -0.4980    2.2440 O   0  0
   -4.0960   -0.4510    1.6700 C   0  0
   -3.9160    0.2560    0.4590 C   0  0
   -3.0020   -1.1070    2.2700 C   0  0
   -2.6390    0.3110   -0.1520 C   0  0
   -1.7250   -1.0550    1.6680 C   0  0
   -1.5210   -0.3380    0.4530 C   0  0
   -2.4670    1.0330   -1.4390 C   0  0
   -0.1820   -0.2380   -0.2150 C   0  0  1  0  0  0
   -1.0960    1.7270   -1.6150 C   0  0
    0.0220    1.2340   -0.6700 C   0  0  2  0  0  0
    1.0040   -0.6520    0.7150 C   0  0
   -0.2130   -1.1700   -1.4390 C   0  0
    1.4160    1.4880   -1.2770 C   0  0
    2.4220   -0.3730    0.1550 C   0  0  2  0  0  0
   -0.3530   -2.6430   -1.0560 C   0  0
    2.5490    1.1090   -0.3030 C   0  0  1  0  0  0
    2.6450   -1.2480   -0.9390 O   0  0
    3.4900   -0.7480    1.1900 C   0  0
    3.7870    1.3300   -0.9590 O   0  0
    2.5570    2.0620    0.9010 C   0  0
   -6.0470   -0.0450    1.8230 H   0  0
   -4.7580    0.7540    0.0020 H   0  0
   -3.1390   -1.6540    3.1920 H   0  0
   -0.9140   -1.5720    2.1580 H   0  0
   -2.5960    0.3010   -2.2360 H   0  0
   -3.2620    1.7680   -1.5820 H   0  0
   -1.2130    2.8030   -1.4860 H   0  0
   -0.7870    1.5960   -2.6540 H   0  0
   -0.0430    1.8570    0.2270 H   0  0
    0.9180   -0.1090    1.6600 H   0  0
    0.9300   -1.7110    0.9730 H   0  0
   -1.0020   -0.8730   -2.1290 H   0  0
    0.6700   -1.0160   -2.0620 H   0  0
    1.5020    2.5370   -1.5620 H   0  0
    1.5100    0.9180   -2.2030 H   0  0
   -0.5660   -3.2500   -1.9350 H   0  0
    0.5610   -3.0080   -0.5860 H   0  0
   -1.1700   -2.7810   -0.3470 H   0  0
    2.5760   -2.1540   -0.5990 H   0  0
    3.4010   -1.7870    1.5080 H   0  0
    3.4060   -0.1190    2.0760 H   0  0
    4.4900   -0.6130    0.7800 H   0  0
    4.4860    1.2070   -0.2970 H   0  0
    3.4570    1.9430    1.5060 H   0  0
    1.6970    1.8810    1.5430 H   0  0
    2.5140    3.1020    0.5710 H   0  0
  1  2  1  0
  2  3  2  0
  2  4  1  0
  3  5  1  0
  4  6  2  0
  5  7  2  0
  5  8  1  0
  7  9  1  0
  8 10  1  0
  9 11  1  0
  9 12  1  0
  9 13  1  0
 11 14  1  0
 12 15  1  0
 13 16  1  0
 14 17  1  0
 15 18  1  0
 15 19  1  0
 17 20  1  0
 17 21  1  0
  6  7  1  0
 10 11  1  0
 15 17  1  0
  1 22  1  0
  3 23  1  0
  4 24  1  0
  6 25  1  0
  8 26  1  0
  8 27  1  0
 10 28  1  0
 10 29  1  0
 11 30  1  0
 12 31  1  0
 12 32  1  0
 13 33  1  0
 13 34  1  0
 14 35  1  0
 14 36  1  0
 16 37  1  0
 16 38  1  0
 16 39  1  0
 18 40  1  0
 19 41  1  0
 19 42  1  0
 19 43  1  0
 20 44  1  0
 21 45  1  0
 21 46  1  0
 21 47  1  0
M  END
> <Name>
CHEMBL3421880

> <IC50 nM>
211

> <Molecule_ChEMBL_ID>
CHEMBL3421880

> <Smiles>
CC[C@@]12C[C@@](C)(O)[C@@](C)(O)C[C@H]1CCc1cc(O)ccc12

$$$$
CHEMBL3977631
  SciTegic08162514323D

 63 67  0  0  1  0            999 V2000
   -5.0160   -2.3300    0.0610 S   0  0
   -5.5100   -3.0280   -1.1130 O   0  0
   -4.4490   -3.2190    1.0590 O   0  0
   -3.7030   -1.3320   -0.4920 N   0  0
   -6.3630   -1.4160    0.8010 C   0  0
   -2.5080   -1.9920   -0.9920 C   0  0  2  0  0  0
   -7.1330   -2.2130    1.8280 C   0  0
   -6.1600   -1.1390    2.2740 C   0  0
   -1.3400   -1.0060   -1.0580 C   0  0  2  0  0  0
   -2.7890   -2.6640   -2.3360 C   0  0
   -0.1910   -1.6680   -1.5660 O   0  0
   -1.0310   -0.4340    0.2790 C   0  0
    0.9450   -0.9650   -1.6680 C   0  0
   -1.4140    0.8850    0.5840 C   0  0
   -0.3550   -1.2090    1.2380 C   0  0
    2.1950   -1.6430   -1.6970 C   0  0
    0.8970    0.4530   -1.7460 C   0  0
   -1.1230    1.4260    1.8480 C   0  0
   -0.0640   -0.6680    2.5020 C   0  0
    3.3910   -0.8870   -1.8050 C   0  0
    2.0940    1.2030   -1.8530 C   0  0
   -0.4470    0.6480    2.8050 C   0  0
    3.3170    0.4920   -1.8790 C   0  0
    4.6450   -1.4750   -1.8420 C   0  0
   -0.0900    1.3140    4.3560 S   0  0
    4.6230    0.8460   -1.9690 N   0  0
    5.3730   -0.3090   -1.9450 N   0  0
   -1.3420    1.6480    5.0100 O   0  0
    0.7830    2.4610    4.1720 O   0  0
    0.7660    0.0900    5.3380 C   0  0
    5.1210    2.1070   -2.0660 C   0  0
    6.1760    2.3830   -2.9590 C   0  0
    4.5840    3.1430   -1.2770 C   0  0
    6.6920    3.6870   -3.0580 C   0  0
    5.1020    4.4450   -1.3790 C   0  0
    6.1540    4.7190   -2.2690 C   0  0
    6.6410    5.9530   -2.3630 F   0  0
   -4.0430   -0.6900   -1.2220 H   0  0
   -6.8520   -0.7010    0.1370 H   0  0
   -2.2640   -2.8360   -0.3470 H   0  0
   -8.1990   -2.0080    1.9340 H   0  0
   -6.8480   -3.2520    1.9940 H   0  0
   -6.5740   -0.2130    2.6760 H   0  0
   -5.2270   -1.4610    2.7330 H   0  0
   -1.6030   -0.2030   -1.7460 H   0  0
   -3.5100   -3.4730   -2.2190 H   0  0
   -3.1780   -1.9440   -3.0550 H   0  0
   -1.8750   -3.0900   -2.7520 H   0  0
   -1.9340    1.4860   -0.1480 H   0  0
   -0.0590   -2.2230    1.0100 H   0  0
    2.2210   -2.7210   -1.6390 H   0  0
   -0.0550    0.9630   -1.7220 H   0  0
   -1.4160    2.4390    2.0820 H   0  0
    0.4550   -1.2660    3.2390 H   0  0
    2.0700    2.2810   -1.9120 H   0  0
    4.9960   -2.4980   -1.8030 H   0  0
    1.0330    0.4260    6.3400 H   0  0
    1.6840   -0.2070    4.8300 H   0  0
    0.1410   -0.7970    5.4400 H   0  0
    6.6040    1.6030   -3.5740 H   0  0
    3.7760    2.9510   -0.5860 H   0  0
    7.5000    3.8930   -3.7440 H   0  0
    4.6860    5.2340   -0.7690 H   0  0
  1  2  2  0
  1  3  2  0
  1  4  1  0
  1  5  1  0
  4  6  1  0
  5  7  1  0
  5  8  1  0
  6  9  1  0
  6 10  1  0
  9 11  1  0
  9 12  1  0
 11 13  1  0
 12 14  2  0
 12 15  1  0
 13 16  2  0
 13 17  1  0
 14 18  1  0
 15 19  2  0
 16 20  1  0
 17 21  2  0
 18 22  2  0
 20 23  2  0
 20 24  1  0
 22 25  1  0
 23 26  1  0
 24 27  2  0
 25 28  2  0
 25 29  2  0
 25 30  1  0
 26 31  1  0
 31 32  2  0
 31 33  1  0
 32 34  1  0
 33 35  2  0
 34 36  2  0
 36 37  1  0
  7  8  1  0
 19 22  1  0
 21 23  1  0
 26 27  1  0
 35 36  1  0
  4 38  1  0
  5 39  1  0
  6 40  1  0
  7 41  1  0
  7 42  1  0
  8 43  1  0
  8 44  1  0
  9 45  1  0
 10 46  1  0
 10 47  1  0
 10 48  1  0
 14 49  1  0
 15 50  1  0
 16 51  1  0
 17 52  1  0
 18 53  1  0
 19 54  1  0
 21 55  1  0
 24 56  1  0
 30 57  1  0
 30 58  1  0
 30 59  1  0
 32 60  1  0
 33 61  1  0
 34 62  1  0
 35 63  1  0
M  END
> <Name>
CHEMBL3977631

> <IC50 nM>
1.4

> <Molecule_ChEMBL_ID>
CHEMBL3977631

> <Smiles>
C[C@H](NS(=O)(=O)C1CC1)[C@H](Oc1ccc2c(cnn2-c2ccc(F)cc2)c1)c1ccc(S(C)(=O)=O)cc1

$$$$
CHEMBL3774852
  SciTegic08162514323D

 59 64  0  0  0  0            999 V2000
    8.0940    2.5430    2.9470 F   0  0
    6.9710    2.0510    2.4300 C   0  0
    6.6350    2.3160    1.0820 C   0  0
    6.1110    1.2620    3.2270 C   0  0
    5.4430    1.7870    0.5290 C   0  0
    4.9140    0.7440    2.6760 C   0  0
    5.1430    2.0470   -0.7480 O   0  0
    4.5700    1.0120    1.3220 C   0  0
    5.2110    0.9960   -1.7030 C   0  0
    3.2730    0.5000    0.7620 C   0  0
    4.1070   -0.0040   -1.6640 C   0  0
    3.2250   -0.2640   -0.5550 C   0  0
    2.1700    0.7700    1.5210 C   0  0
    3.9550   -0.7560   -2.8630 C   0  0
    2.2660   -1.3130   -0.6970 C   0  0
    0.7620    0.5120    1.1580 C   0  0
    2.9670   -1.7520   -2.9880 C   0  0
    2.1230   -2.0330   -1.9000 C   0  0
    0.3260    0.7170   -0.1720 C   0  0
   -0.1520    0.0590    2.1410 C   0  0
   -1.0290    0.4550   -0.4710 C   0  0
   -1.5020   -0.1880    1.7850 C   0  0
   -1.6720    0.6050   -1.7830 N   0  0
   -1.9750    0.0080    0.4570 C   0  0
   -3.0310    0.2270   -1.5800 C   0  0
   -3.3420   -0.1860   -0.1390 C   0  0
   -3.8360    0.2380   -2.4820 O   0  0
   -3.7790   -1.6600   -0.0330 C   0  0
   -4.3670    0.7540    0.5270 C   0  0
   -5.2010   -1.8730   -0.5760 C   0  0
   -5.7870    0.5270   -0.0200 C   0  0
   -6.2290   -0.9410    0.0900 N   0  3
   -6.3050   -1.2810    1.4690 O   0  5
   -7.6270   -1.1470   -0.4980 C   0  0
    7.2870    2.9220    0.4710 H   0  0
    6.3630    1.0490    4.2540 H   0  0
    4.2680    0.1460    3.3010 H   0  0
    6.1740    0.4880   -1.6110 H   0  0
    5.2190    1.4840   -2.6800 H   0  0
    2.2950    1.2380    2.4860 H   0  0
    4.6050   -0.5660   -3.7050 H   0  0
    1.6170   -1.6040    0.1130 H   0  0
    2.8610   -2.2990   -3.9160 H   0  0
    1.3690   -2.8010   -1.9860 H   0  0
    1.0060    1.0610   -0.9380 H   0  0
    0.1700   -0.1020    3.1600 H   0  0
   -2.1920   -0.5310    2.5430 H   0  0
   -1.2050    0.9120   -2.6130 H   0  0
   -3.7560   -1.9810    1.0100 H   0  0
   -3.0840   -2.3110   -0.5660 H   0  0
   -4.0840    1.7990    0.3890 H   0  0
   -4.3810    0.5840    1.6050 H   0  0
   -5.2090   -1.7110   -1.6540 H   0  0
   -5.4940   -2.9120   -0.4300 H   0  0
   -5.8320    0.8440   -1.0630 H   0  0
   -6.4870    1.1660    0.5180 H   0  0
   -8.3560   -0.5160    0.0120 H   0  0
   -7.6350   -0.9100   -1.5630 H   0  0
   -7.9470   -2.1820   -0.3850 H   0  0
  1  2  1  0
  2  3  2  0
  2  4  1  0
  3  5  1  0
  4  6  2  0
  5  7  1  0
  5  8  2  0
  7  9  1  0
  8 10  1  0
  9 11  1  0
 10 12  1  0
 10 13  2  0
 11 14  2  0
 12 15  2  0
 13 16  1  0
 14 17  1  0
 15 18  1  0
 16 19  2  0
 16 20  1  0
 19 21  1  0
 20 22  2  0
 21 23  1  0
 21 24  2  0
 23 25  1  0
 24 26  1  0
 25 27  2  0
 26 28  1  0
 26 29  1  0
 28 30  1  0
 29 31  1  0
 30 32  1  0
 32 33  1  0
 32 34  1  0
  6  8  1  0
 11 12  1  0
 17 18  2  0
 22 24  1  0
 25 26  1  0
 31 32  1  0
  3 35  1  0
  4 36  1  0
  6 37  1  0
  9 38  1  0
  9 39  1  0
 13 40  1  0
 14 41  1  0
 15 42  1  0
 17 43  1  0
 18 44  1  0
 19 45  1  0
 20 46  1  0
 22 47  1  0
 23 48  1  0
 28 49  1  0
 28 50  1  0
 29 51  1  0
 29 52  1  0
 30 53  1  0
 30 54  1  0
 31 55  1  0
 31 56  1  0
 34 57  1  0
 34 58  1  0
 34 59  1  0
M  CHG  2  32   1  33  -1
M  END
> <Name>
CHEMBL3774852

> <IC50 nM>
37000

> <Molecule_ChEMBL_ID>
CHEMBL3774852

> <Smiles>
C[N+]1([O-])CCC2(CC1)C(=O)Nc1cc(/C=C3\c4ccccc4COc4cc(F)ccc43)ccc12

$$$$
CHEMBL3775389
  SciTegic08162514323D

 68 73  0  0  0  0            999 V2000
    9.8010    1.5120   -1.6190 F   0  0
    8.5240    1.1620   -1.4820 C   0  0
    7.7740    0.7600   -2.6110 C   0  0
    7.9140    1.1930   -0.2070 C   0  0
    6.4160    0.3850   -2.4650 C   0  0
    6.5550    0.8300   -0.0660 C   0  0
    5.7250    0.0040   -3.5450 O   0  0
    5.7930    0.4280   -1.1970 C   0  0
    5.3500   -1.3610   -3.6820 C   0  0
    4.3380    0.0920   -1.0450 C   0  0
    4.2290   -1.8300   -2.8160 C   0  0
    3.7600   -1.2010   -1.6070 C   0  0
    3.5980    1.0190   -0.3710 C   0  0
    3.5960   -3.0200   -3.2710 C   0  0
    2.7070   -1.8460   -0.8890 C   0  0
    2.1310    1.0210   -0.1890 C   0  0
    2.5270   -3.6040   -2.5640 C   0  0
    2.0840   -3.0160   -1.3670 C   0  0
    1.5720    1.4390    1.0390 C   0  0
    1.2870    0.6030   -1.2480 C   0  0
    0.1660    1.4260    1.1620 C   0  0
   -0.1190    0.6050   -1.0680 C   0  0
   -0.6000    1.8300    2.3480 N   0  0
   -0.7150    1.0180    0.1560 C   0  0
   -1.9650    1.6350    1.9900 C   0  0
   -2.1580    1.1000    0.5680 C   0  0
   -2.8650    1.8730    2.7620 O   0  0
   -2.9370    2.0920   -0.3180 C   0  0
   -2.8420   -0.2930    0.5800 C   0  0
   -4.3790    2.2810    0.1990 C   0  0
   -4.3380   -0.2700    0.1910 C   0  0
   -5.0100    0.9920    0.5760 N   0  0
   -6.1890    0.9760    1.2700 C   0  0
   -6.7580    2.0120    1.5330 O   0  0
   -6.7620   -0.3500    1.6920 C   0  0
   -5.9240   -0.9550    2.7130 N   0  0
   -5.8200   -0.0800    3.8690 C   0  0
   -6.4510   -2.2520    3.1040 C   0  0
    8.2370    0.7380   -3.5880 H   0  0
    8.4810    1.4960    0.6600 H   0  0
    6.1040    0.8630    0.9160 H   0  0
    6.2270   -1.9940   -3.5250 H   0  0
    5.0700   -1.4880   -4.7300 H   0  0
    4.0960    1.8690    0.0740 H   0  0
    3.9320   -3.4980   -4.1820 H   0  0
    2.3500   -1.4670    0.0570 H   0  0
    2.0530   -4.5000   -2.9370 H   0  0
    1.2720   -3.4610   -0.8120 H   0  0
    2.1970    1.7620    1.8590 H   0  0
    1.7050    0.2870   -2.1910 H   0  0
   -0.7580    0.2850   -1.8790 H   0  0
   -0.2010    2.1620    3.2010 H   0  0
   -2.9730    1.7130   -1.3420 H   0  0
   -2.4350    3.0610   -0.3690 H   0  0
   -2.3480   -0.9770   -0.1150 H   0  0
   -2.7270   -0.7600    1.5610 H   0  0
   -4.3810    2.9430    1.0630 H   0  0
   -4.9860    2.7620   -0.5680 H   0  0
   -4.8520   -1.1310    0.6210 H   0  0
   -4.4300   -0.3630   -0.8930 H   0  0
   -7.7700   -0.2110    2.0840 H   0  0
   -6.8240   -1.0180    0.8320 H   0  0
   -6.7770    0.2090    4.3010 H   0  0
   -5.2930    0.8320    3.5900 H   0  0
   -5.2400   -0.5740    4.6490 H   0  0
   -5.7730   -2.7190    3.8190 H   0  0
   -7.4610   -2.1310    3.4940 H   0  0
   -6.5100   -2.8990    2.2270 H   0  0
  1  2  1  0
  2  3  2  0
  2  4  1  0
  3  5  1  0
  4  6  2  0
  5  7  1  0
  5  8  2  0
  7  9  1  0
  8 10  1  0
  9 11  1  0
 10 12  1  0
 10 13  2  0
 11 14  2  0
 12 15  2  0
 13 16  1  0
 14 17  1  0
 15 18  1  0
 16 19  2  0
 16 20  1  0
 19 21  1  0
 20 22  2  0
 21 23  1  0
 21 24  2  0
 23 25  1  0
 24 26  1  0
 25 27  2  0
 26 28  1  0
 26 29  1  0
 28 30  1  0
 29 31  1  0
 30 32  1  0
 32 33  1  0
 33 34  2  0
 33 35  1  0
 35 36  1  0
 36 37  1  0
 36 38  1  0
  6  8  1  0
 11 12  1  0
 17 18  2  0
 22 24  1  0
 25 26  1  0
 31 32  1  0
  3 39  1  0
  4 40  1  0
  6 41  1  0
  9 42  1  0
  9 43  1  0
 13 44  1  0
 14 45  1  0
 15 46  1  0
 17 47  1  0
 18 48  1  0
 19 49  1  0
 20 50  1  0
 22 51  1  0
 23 52  1  0
 28 53  1  0
 28 54  1  0
 29 55  1  0
 29 56  1  0
 30 57  1  0
 30 58  1  0
 31 59  1  0
 31 60  1  0
 35 61  1  0
 35 62  1  0
 37 63  1  0
 37 64  1  0
 37 65  1  0
 38 66  1  0
 38 67  1  0
 38 68  1  0
M  END
> <Name>
CHEMBL3775389

> <IC50 nM>
5000

> <Molecule_ChEMBL_ID>
CHEMBL3775389

> <Smiles>
CN(C)CC(=O)N1CCC2(CC1)C(=O)Nc1cc(/C=C3\c4ccccc4COc4cc(F)ccc43)ccc12

$$$$
CHEMBL3775473
  SciTegic08162514323D

 51 55  0  0  0  0            999 V2000
    1.9280    0.4260    1.0330 S   0  0
    2.5410   -0.8380    1.4040 O   0  0
    2.6540    1.5800    1.5270 O   0  0
    1.9260    0.5080   -0.5960 N   0  0
    0.3460    0.4670    1.6800 C   0  0
    2.9650    0.0140   -1.3480 C   0  0
    0.9180    1.1820   -1.2250 C   0  0
   -0.5780   -0.5550    1.3570 C   0  0
   -0.0390    1.5220    2.5390 C   0  0
    2.8690   -0.5740   -2.6640 C   0  0
    4.2580    0.1000   -0.7540 C   0  0
    0.1500    0.6210   -2.2850 C   0  0
    0.6070    2.4960   -0.7770 C   0  0
   -1.8970   -0.5210    1.8850 C   0  0
   -1.3500    1.5610    3.0680 C   0  0
    1.7290   -0.8070   -3.3500 O   0  0
    4.0470   -0.9750   -3.3420 C   0  0
    5.4180   -0.3280   -1.4360 C   0  0
   -0.8910    1.3730   -2.8890 C   0  0
    0.4390   -0.7500   -2.7480 C   0  0
   -0.4360    3.2380   -1.3770 C   0  0
   -2.2870    0.5470    2.7360 C   0  0
   -2.8830   -1.6000    1.5860 C   0  0
    5.3150   -0.8530   -2.7380 C   0  0
   -1.1820    2.6780   -2.4360 C   0  0
   -3.5490    0.5860    3.2210 N   0  0
   -4.2360   -1.1520    1.7830 O   0  0
   -2.6450   -2.7830    2.5290 C   0  0
   -2.7910   -2.0720    0.1290 C   0  0
    6.4080   -1.2380   -3.3930 F   0  0
   -4.5350   -0.2580    2.7520 C   0  0
   -6.0510   -0.0270    3.4430 S   0  0
   -0.2700   -1.3590    0.7070 H   0  0
    0.6660    2.2990    2.7910 H   0  0
    4.3950    0.5020    0.2400 H   0  0
    1.1640    2.9530    0.0290 H   0  0
   -1.6230    2.3730    3.7250 H   0  0
    3.9750   -1.3850   -4.3400 H   0  0
    6.3850   -0.2460   -0.9570 H   0  0
   -1.4670    0.9510   -3.6990 H   0  0
    0.3890   -1.4610   -1.9200 H   0  0
   -0.2870   -1.0800   -3.4920 H   0  0
   -0.6580    4.2340   -1.0270 H   0  0
   -1.9790    3.2440   -2.8960 H   0  0
   -3.7910    1.2560    3.9260 H   0  0
   -2.6740   -2.4790    3.5760 H   0  0
   -1.6700   -3.2360    2.3420 H   0  0
   -3.4020   -3.5510    2.3850 H   0  0
   -2.8160   -1.2230   -0.5550 H   0  0
   -1.8750   -2.6370   -0.0370 H   0  0
   -3.6310   -2.7230   -0.1170 H   0  0
  1  2  2  0
  1  3  2  0
  1  4  1  0
  1  5  1  0
  4  6  1  0
  4  7  1  0
  5  8  2  0
  5  9  1  0
  6 10  2  0
  6 11  1  0
  7 12  2  0
  7 13  1  0
  8 14  1  0
  9 15  2  0
 10 16  1  0
 10 17  1  0
 11 18  2  0
 12 19  1  0
 12 20  1  0
 13 21  2  0
 14 22  2  0
 14 23  1  0
 17 24  2  0
 19 25  2  0
 22 26  1  0
 23 27  1  0
 23 28  1  0
 23 29  1  0
 24 30  1  0
 26 31  1  0
 31 32  2  0
 15 22  1  0
 16 20  1  0
 18 24  1  0
 21 25  1  0
 27 31  1  0
  8 33  1  0
  9 34  1  0
 11 35  1  0
 13 36  1  0
 15 37  1  0
 17 38  1  0
 18 39  1  0
 19 40  1  0
 20 41  1  0
 20 42  1  0
 21 43  1  0
 25 44  1  0
 26 45  1  0
 28 46  1  0
 28 47  1  0
 28 48  1  0
 29 49  1  0
 29 50  1  0
 29 51  1  0
M  END
> <Name>
CHEMBL3775473

> <IC50 nM>
651

> <Molecule_ChEMBL_ID>
CHEMBL3775473

> <Smiles>
CC1(C)OC(=S)Nc2ccc(S(=O)(=O)N3c4ccccc4COc4cc(F)ccc43)cc21

$$$$
CHEMBL4094154
  SciTegic08162514323D

 61 65  0  0  1  0            999 V2000
    4.0430   -5.5370    6.5510 F   0  0
    3.3160   -4.6930    5.8220 C   0  0
    1.9120   -4.7520    5.8690 C   0  0
    3.9510   -3.7420    5.0060 C   0  0
    1.1420   -3.8610    5.1000 C   0  0
    3.1850   -2.8500    4.2360 C   0  0
    1.7770   -2.9080    4.2810 C   0  0
    1.0350   -2.0450    3.5370 N   0  0
   -0.1020   -1.3980    3.9650 N   0  0
    1.2690   -1.6660    2.2560 C   0  0
   -0.6860   -0.5680    3.0290 C   0  0
    0.2250   -0.7970    2.0120 C   0  0
    2.2600   -1.9750    1.2930 C   0  0
    0.1210   -0.1740    0.7400 C   0  0
    2.1600   -1.3550    0.0210 C   0  0
    1.0960   -0.4570   -0.2540 C   0  0
    1.0080    0.1250   -1.4590 O   0  0
    0.0000    1.1060   -1.6520 C   0  0  2  0  0  0
   -1.3150    0.4490   -1.7380 C   0  0
    0.3100    1.9100   -2.9160 C   0  0  1  0  0  0
   -2.4850    1.1580   -1.3790 C   0  0
   -1.4060   -0.8930   -2.1820 C   0  0
    1.5270    2.7170   -2.7400 N   0  0
    0.4060    1.0350   -4.1660 C   0  0
   -3.7460    0.5250   -1.4630 C   0  0
   -2.6680   -1.5270   -2.2660 C   0  0
    1.4510    3.9160   -2.0920 C   0  0
   -4.8670    1.1910   -1.1130 O   0  0
   -3.8420   -0.8220   -1.9060 C   0  0
    0.3910    4.3130   -1.6660 O   0  0
    2.7070    4.7270   -1.9220 C   0  0
   -6.1560    0.6170   -1.3850 C   0  0
   -5.1800   -1.4690   -1.9900 C   0  0
    3.6350    4.0270   -1.1950 F   0  0
    3.2340    5.0570   -3.1450 F   0  0
    2.3280    6.0040   -1.1700 C   0  0
   -6.1470   -0.7930   -1.1880 O   0  0
    1.4200   -5.4820    6.4940 H   0  0
    5.0290   -3.6930    4.9670 H   0  0
    0.0640   -3.9240    5.1480 H   0  0
    3.6910   -2.1250    3.6130 H   0  0
   -1.5760    0.0410    3.1210 H   0  0
    3.0640   -2.6600    1.5160 H   0  0
   -0.6860    0.5120    0.5200 H   0  0
    2.8980   -1.5700   -0.7360 H   0  0
    0.0120    1.7830   -0.7990 H   0  0
   -0.5220    2.5680   -3.1660 H   0  0
   -2.4180    2.1820   -1.0390 H   0  0
   -0.5160   -1.4370   -2.4590 H   0  0
    2.4040    2.3910   -3.0940 H   0  0
    0.6230    1.6430   -5.0450 H   0  0
    1.1890    0.2850   -4.0510 H   0  0
   -0.5330    0.5140   -4.3440 H   0  0
   -2.7310   -2.5530   -2.6060 H   0  0
   -6.8970    1.0760   -0.7310 H   0  0
   -6.4280    0.8300   -2.4200 H   0  0
   -5.5220   -1.4570   -3.0250 H   0  0
   -5.1390   -2.5080   -1.6620 H   0  0
    3.1910    6.6510   -1.0080 H   0  0
    1.9020    5.7660   -0.1970 H   0  0
    1.5860    6.5740   -1.7290 H   0  0
  1  2  1  0
  2  3  2  0
  2  4  1  0
  3  5  1  0
  4  6  2  0
  5  7  2  0
  7  8  1  0
  8  9  1  0
  8 10  1  0
  9 11  2  0
 10 12  1  0
 10 13  2  0
 12 14  2  0
 13 15  1  0
 14 16  1  0
 16 17  1  0
 18 17  1  0
 18 19  1  0
 18 20  1  0
 19 21  2  0
 19 22  1  0
 20 23  1  0
 20 24  1  0
 21 25  1  0
 22 26  2  0
 23 27  1  0
 25 28  1  0
 25 29  2  0
 27 30  2  0
 27 31  1  0
 28 32  1  0
 29 33  1  0
 31 34  1  0
 31 35  1  0
 31 36  1  0
 32 37  1  0
  6  7  1  0
 11 12  1  0
 15 16  2  0
 26 29  1  0
 33 37  1  0
  3 38  1  0
  4 39  1  0
  5 40  1  0
  6 41  1  0
 11 42  1  0
 13 43  1  0
 14 44  1  0
 15 45  1  0
 18 46  1  0
 20 47  1  0
 21 48  1  0
 22 49  1  0
 23 50  1  0
 24 51  1  0
 24 52  1  0
 24 53  1  0
 26 54  1  0
 32 55  1  0
 32 56  1  0
 33 57  1  0
 33 58  1  0
 36 59  1  0
 36 60  1  0
 36 61  1  0
M  END
> <Name>
CHEMBL4094154

> <IC50 nM>
0.13

> <Molecule_ChEMBL_ID>
CHEMBL4094154

> <Smiles>
C[C@H](NC(=O)C(C)(F)F)[C@H](Oc1ccc2c(cnn2-c2ccc(F)cc2)c1)c1ccc2c(c1)OCOC2

$$$$
CHEMBL373239
  SciTegic08162514323D

 58 61  0  0  1  0            999 V2000
   -5.5590    5.4340   -1.0570 O   0  0
   -5.5200    4.2250   -1.0040 C   0  0
   -6.5650    3.3650   -1.0720 O   0  0
   -4.3030    3.4530   -0.8480 C   0  0
   -6.1000    1.9850   -0.9670 C   0  0
   -4.5960    2.1040   -0.8200 C   0  0
   -2.9750    3.9340   -0.7360 C   0  0
   -3.5370    1.1720   -0.6720 C   0  0
   -1.9180    3.0060   -0.5920 C   0  0
   -2.1930    1.6130   -0.5570 C   0  0
   -1.1970    0.7270   -0.4200 N   0  0
   -0.1740    0.9770    0.4510 C   0  0
   -0.1620    1.9960    1.1020 O   0  0
    0.9280   -0.0390    0.5820 C   0  0  2  0  0  0
    1.7810    0.1840    1.8320 C   0  0
    1.7680   -0.1560   -0.6890 C   0  0
    0.9470    0.2270    3.0630 C   0  0
    2.5720   -1.4550   -0.7480 C   0  0
    0.8420    1.4200    3.8010 C   0  0
    0.2640   -0.9260    3.4900 C   0  0
    2.4730   -2.1010   -2.0840 C   0  0
    4.0270   -1.2670   -0.3200 C   0  0
    1.8850   -2.6070   -0.0140 C   0  0
    0.0530    1.4610    4.9630 C   0  0
   -0.5250   -0.8830    4.6540 C   0  0
    3.6270   -2.6070   -2.7070 C   0  0
    1.2250   -2.2070   -2.7230 C   0  0
   -0.6290    0.3090    5.3910 C   0  0
    3.5330   -3.2190   -3.9710 C   0  0
    1.1310   -2.8180   -3.9860 C   0  0
    2.2850   -3.3220   -4.6090 C   0  0
   -6.5470    1.5180   -0.1020 H   0  0
   -6.3690    1.4440   -1.8610 H   0  0
   -2.7700    4.9940   -0.7600 H   0  0
   -3.7770    0.1190   -0.6480 H   0  0
   -0.9040    3.3730   -0.5080 H   0  0
   -1.2010   -0.1190   -0.9550 H   0  0
    0.2870   -0.9120    0.7050 H   0  0
    2.3540    1.1080    1.7480 H   0  0
    2.5330   -0.5990    1.9300 H   0  0
    1.1410   -0.0510   -1.5760 H   0  0
    2.4220    0.7070   -0.8010 H   0  0
    1.3630    2.3090    3.4770 H   0  0
    0.3400   -1.8440    2.9300 H   0  0
    4.5330   -2.2210   -0.1720 H   0  0
    4.0860   -0.7110    0.6150 H   0  0
    4.5820   -0.7090   -1.0760 H   0  0
    2.3830   -3.5530   -0.2300 H   0  0
    1.8950   -2.4390    1.0630 H   0  0
    0.8460   -2.6990   -0.3280 H   0  0
   -0.0270    2.3770    5.5290 H   0  0
   -1.0490   -1.7690    4.9830 H   0  0
    4.5880   -2.5290   -2.2230 H   0  0
    0.3340   -1.8200   -2.2500 H   0  0
   -1.2360    0.3400    6.2830 H   0  0
    4.4200   -3.6070   -4.4490 H   0  0
    0.1740   -2.8980   -4.4770 H   0  0
    2.2130   -3.7930   -5.5800 H   0  0
  1  2  2  0
  2  3  1  0
  2  4  1  0
  3  5  1  0
  4  6  2  0
  4  7  1  0
  6  8  1  0
  7  9  2  0
  8 10  2  0
 10 11  1  0
 11 12  1  0
 12 13  2  0
 12 14  1  0
 14 15  1  0
 14 16  1  0
 15 17  1  0
 16 18  1  0
 17 19  2  0
 17 20  1  0
 18 21  1  0
 18 22  1  0
 18 23  1  0
 19 24  1  0
 20 25  2  0
 21 26  2  0
 21 27  1  0
 24 28  2  0
 26 29  1  0
 27 30  2  0
 29 31  2  0
  5  6  1  0
  9 10  1  0
 25 28  1  0
 30 31  1  0
  5 32  1  0
  5 33  1  0
  7 34  1  0
  8 35  1  0
  9 36  1  0
 11 37  1  0
 14 38  1  0
 15 39  1  0
 15 40  1  0
 16 41  1  0
 16 42  1  0
 19 43  1  0
 20 44  1  0
 22 45  1  0
 22 46  1  0
 22 47  1  0
 23 48  1  0
 23 49  1  0
 23 50  1  0
 24 51  1  0
 25 52  1  0
 26 53  1  0
 27 54  1  0
 28 55  1  0
 29 56  1  0
 30 57  1  0
 31 58  1  0
M  END
> <Name>
CHEMBL373239

> <IC50 nM>
2000

> <Molecule_ChEMBL_ID>
CHEMBL373239

> <Smiles>
CC(C)(CC(Cc1ccccc1)C(=O)Nc1ccc2c(c1)COC2=O)c1ccccc1

$$$$
CHEMBL3914142
  SciTegic08162514323D

 57 61  0  0  1  0            999 V2000
   -4.9300   -2.2970    0.7230 S   0  0
   -5.4670   -2.9780   -0.4430 O   0  0
   -4.3130   -3.1990    1.6800 O   0  0
   -3.6500   -1.2750    0.1330 N   0  0
   -6.2560   -1.4100    1.5350 C   0  0
   -2.4770   -1.9120   -0.4380 C   0  0  2  0  0  0
   -6.9430   -2.2210    2.6090 C   0  0
   -5.9730   -1.1190    2.9920 C   0  0
   -1.3150   -0.9220   -0.5180 C   0  0  2  0  0  0
   -2.8130   -2.5390   -1.7910 C   0  0
   -0.1820   -1.5640   -1.0820 O   0  0
   -0.9630   -0.3830    0.8220 C   0  0
    0.9550   -0.8630   -1.1840 C   0  0
   -1.2910    0.9430    1.1560 C   0  0
   -0.2990   -1.1970    1.7560 C   0  0
    2.2030   -1.5390   -1.2130 C   0  0
    0.9060    0.5550   -1.2620 C   0  0
   -0.9590    1.4530    2.4220 C   0  0
    0.0350   -0.6870    3.0230 C   0  0
    3.4000   -0.7830   -1.3220 C   0  0
    2.1040    1.3050   -1.3690 C   0  0
   -0.2950    0.6390    3.3560 C   0  0
    3.3260    0.5960   -1.3950 C   0  0
    4.6520   -1.3710   -1.3570 C   0  0
    4.6330    0.9490   -1.4860 N   0  0
    5.3830   -0.2050   -1.4610 N   0  0
    5.1310    2.2090   -1.5820 C   0  0
    6.1800    2.4880   -2.4810 C   0  0
    4.6000    3.2420   -0.7870 C   0  0
    6.6950    3.7930   -2.5800 C   0  0
    5.1150    4.5470   -0.8890 C   0  0
    6.1620    4.8220   -1.7850 C   0  0
    6.6500    6.0570   -1.8790 F   0  0
   -4.0290   -0.6170   -0.5630 H   0  0
   -6.7970   -0.7110    0.8960 H   0  0
   -2.2030   -2.7770    0.1660 H   0  0
   -8.0060   -2.0410    2.7750 H   0  0
   -6.6230   -3.2520    2.7620 H   0  0
   -6.3870   -0.2030    3.4140 H   0  0
   -5.0060   -1.4160    3.3980 H   0  0
   -1.6040   -0.1010   -1.1760 H   0  0
   -3.5060   -3.3710   -1.6700 H   0  0
   -3.2580   -1.8010   -2.4570 H   0  0
   -1.9120   -2.9220   -2.2720 H   0  0
   -1.8010    1.5740    0.4430 H   0  0
   -0.0430   -2.2170    1.5060 H   0  0
    2.2300   -2.6170   -1.1540 H   0  0
   -0.0450    1.0660   -1.2380 H   0  0
   -1.2110    2.4710    2.6800 H   0  0
    0.5450   -1.3120    3.7400 H   0  0
    2.0800    2.3830   -1.4280 H   0  0
   -0.0390    1.0290    4.3300 H   0  0
    5.0060   -2.3940   -1.3180 H   0  0
    6.6020    1.7090   -3.1020 H   0  0
    3.7950    3.0510   -0.0920 H   0  0
    7.5000    4.0000   -3.2720 H   0  0
    4.7050    5.3360   -0.2750 H   0  0
  1  2  2  0
  1  3  2  0
  1  4  1  0
  1  5  1  0
  4  6  1  0
  5  7  1  0
  5  8  1  0
  6  9  1  0
  6 10  1  0
  9 11  1  0
  9 12  1  0
 11 13  1  0
 12 14  2  0
 12 15  1  0
 13 16  2  0
 13 17  1  0
 14 18  1  0
 15 19  2  0
 16 20  1  0
 17 21  2  0
 18 22  2  0
 20 23  2  0
 20 24  1  0
 23 25  1  0
 24 26  2  0
 25 27  1  0
 27 28  2  0
 27 29  1  0
 28 30  1  0
 29 31  2  0
 30 32  2  0
 32 33  1  0
  7  8  1  0
 19 22  1  0
 21 23  1  0
 25 26  1  0
 31 32  1  0
  4 34  1  0
  5 35  1  0
  6 36  1  0
  7 37  1  0
  7 38  1  0
  8 39  1  0
  8 40  1  0
  9 41  1  0
 10 42  1  0
 10 43  1  0
 10 44  1  0
 14 45  1  0
 15 46  1  0
 16 47  1  0
 17 48  1  0
 18 49  1  0
 19 50  1  0
 21 51  1  0
 22 52  1  0
 24 53  1  0
 28 54  1  0
 29 55  1  0
 30 56  1  0
 31 57  1  0
M  END
> <Name>
CHEMBL3914142

> <IC50 nM>
6

> <Molecule_ChEMBL_ID>
CHEMBL3914142

> <Smiles>
C[C@H](NS(=O)(=O)C1CC1)[C@H](Oc1ccc2c(cnn2-c2ccc(F)cc2)c1)c1ccccc1

$$$$
CHEMBL235536
  SciTegic08162514323D

 52 53  0  0  1  0            999 V2000
    2.5740    1.4840   -1.5240 F   0  0
    1.2560    1.3110   -1.5670 C   0  0
    0.7130    0.0180   -1.4860 C   0  0
    0.4030    2.4220   -1.6920 C   0  0
   -0.6810   -0.1680   -1.5330 C   0  0
   -0.9880    2.2380   -1.7360 C   0  0
   -1.5370    0.9450   -1.6580 C   0  0
   -1.2440   -1.5410   -1.4470 C   0  0
   -2.8440    0.7850   -1.7010 O   0  0
   -0.3830   -1.9410   -0.2500 C   0  0
   -0.9280   -2.3570   -2.7010 C   0  0
   -2.7360   -1.5190   -1.1190 C   0  0
   -3.5900    1.0660   -0.5250 C   0  0
   -0.9120   -1.3850    1.0720 C   0  0  1  0  0  0
   -1.3400   -0.0590    0.8520 O   0  0
   -2.0940   -2.1840    1.6190 C   0  0
    0.1490   -1.3670    2.1720 C   0  0
   -3.0450   -1.3220    2.1000 F   0  0
   -1.6640   -3.0020    2.6310 F   0  0
   -2.6350   -2.9450    0.6150 F   0  0
    1.2850   -0.4730    1.8240 C   0  0
    2.3620   -0.9670    1.0680 C   0  0
    1.2810    0.8650    2.2520 C   0  0
    3.4360   -0.1190    0.7380 C   0  0
    2.3560    1.7110    1.9220 C   0  0
    3.4360    1.2210    1.1640 C   0  0
    4.4420    2.0140    0.8550 O   0  0
    4.2090    3.4140    0.8500 C   0  0
    1.3690   -0.8360   -1.3910 H   0  0
    0.8150    3.4200   -1.7520 H   0  0
   -1.6400    3.0940   -1.8320 H   0  0
   -0.2770   -3.0250   -0.1950 H   0  0
    0.6550   -1.6460   -0.4040 H   0  0
   -1.4020   -1.9370   -3.5880 H   0  0
   -1.2770   -3.3850   -2.5900 H   0  0
    0.1470   -2.3890   -2.8810 H   0  0
   -2.9310   -1.0780   -0.1410 H   0  0
   -3.1460   -2.5290   -1.1150 H   0  0
   -3.2870   -0.9390   -1.8610 H   0  0
   -3.8920    2.1040   -0.3770 H   0  0
   -2.9940    0.7660    0.3360 H   0  0
   -4.4920    0.4550   -0.5390 H   0  0
   -1.0950    0.4550    1.6370 H   0  0
   -0.2850   -1.0510    3.1210 H   0  0
    0.5240   -2.3730    2.3610 H   0  0
    2.3690   -1.9940    0.7360 H   0  0
    0.4570    1.2520    2.8340 H   0  0
    4.2600   -0.5040    0.1580 H   0  0
    2.3500    2.7380    2.2520 H   0  0
    3.1510    3.5860    1.0430 H   0  0
    4.9090    3.8790    1.5450 H   0  0
    4.4320    3.7910   -0.1490 H   0  0
  1  2  1  0
  2  3  2  0
  2  4  1  0
  3  5  1  0
  4  6  2  0
  5  7  2  0
  5  8  1  0
  7  9  1  0
  8 10  1  0
  8 11  1  0
  8 12  1  0
  9 13  1  0
 10 14  1  0
 14 15  1  0
 14 16  1  0
 14 17  1  0
 16 18  1  0
 16 19  1  0
 16 20  1  0
 17 21  1  0
 21 22  2  0
 21 23  1  0
 22 24  1  0
 23 25  2  0
 24 26  2  0
 26 27  1  0
 27 28  1  0
  6  7  1  0
 25 26  1  0
  3 29  1  0
  4 30  1  0
  6 31  1  0
 10 32  1  0
 10 33  1  0
 11 34  1  0
 11 35  1  0
 11 36  1  0
 12 37  1  0
 12 38  1  0
 12 39  1  0
 13 40  1  0
 13 41  1  0
 13 42  1  0
 15 43  1  0
 17 44  1  0
 17 45  1  0
 22 46  1  0
 23 47  1  0
 24 48  1  0
 25 49  1  0
 28 50  1  0
 28 51  1  0
 28 52  1  0
M  END
> <Name>
CHEMBL235536

> <IC50 nM>
1250

> <Molecule_ChEMBL_ID>
CHEMBL235536

> <Smiles>
COc1ccc(CC(O)(CC(C)(C)c2cc(F)ccc2OC)C(F)(F)F)cc1

$$$$
CHEMBL63768
  SciTegic08162514323D

 46 49  0  0  1  0            999 V2000
   -2.7320   -2.5490   -0.3160 Br  0  0
   -1.7810   -0.9340   -0.6520 C   0  0
   -2.4980    0.2750   -0.9180 C   0  0
   -0.3440   -0.9200   -0.6350 C   0  0
   -3.8420    0.3420   -0.9470 N   0  0
   -1.7790    1.4670   -1.1660 C   0  0
    0.3650    0.3010   -0.8790 C   0  0
    0.4550   -2.1560   -0.3570 C   0  0  1  0  0  0
   -4.5780    1.7560   -1.2400 S   0  0
   -0.3730    1.4820   -1.1560 C   0  0
    1.8540    0.2890   -0.8500 C   0  0
    1.7720   -2.1170   -0.9260 O   0  0
    0.5610   -2.3750    1.1070 C   0  0
   -4.1820    2.6800   -0.1910 O   0  0
   -4.1760    2.1900   -2.5680 O   0  0
   -6.3560    1.5700   -1.2070 C   0  0
    2.4940   -0.9800   -0.9280 C   0  0
    2.6740    1.4610   -0.7620 C   0  0
    0.2340   -3.6270    1.6580 C   0  0
    0.9860   -1.3280    1.9470 C   0  0
    3.9020   -1.0760   -1.0140 C   0  0
    2.1660    2.6900   -0.5940 O   0  0
    4.0820    1.3520   -0.8340 C   0  0
    0.3360   -3.8340    3.0470 C   0  0
    1.0860   -1.5350    3.3340 C   0  0
    4.6950    0.0880   -0.9730 C   0  0
    3.0160    3.6950   -0.0610 C   0  0
    0.7620   -2.7870    3.8830 C   0  0
   -4.3870   -0.4820   -0.7890 H   0  0
   -2.2990    2.3950   -1.3710 H   0  0
   -0.0160   -3.0370   -0.7950 H   0  0
    0.0920    2.4280   -1.3750 H   0  0
   -6.9060    2.4920   -1.3990 H   0  0
   -6.6640    1.1950   -0.2310 H   0  0
   -6.6600    0.8400   -1.9570 H   0  0
   -0.0940   -4.4360    1.0210 H   0  0
    1.2380   -0.3650    1.5290 H   0  0
    4.3750   -2.0430   -1.1090 H   0  0
    4.6970    2.2380   -0.7830 H   0  0
    0.0860   -4.7950    3.4690 H   0  0
    1.4140   -0.7320    3.9770 H   0  0
    5.7720    0.0140   -1.0450 H   0  0
    2.4060    4.5670    0.1780 H   0  0
    3.5820    3.2620    0.7640 H   0  0
    3.7270    3.9860   -0.8340 H   0  0
    0.8380   -2.9450    4.9490 H   0  0
  1  2  1  0
  2  3  2  0
  2  4  1  0
  3  5  1  0
  3  6  1  0
  4  7  2  0
  4  8  1  0
  5  9  1  0
  6 10  2  0
  7 11  1  0
  8 12  1  0
  8 13  1  0
  9 14  2  0
  9 15  2  0
  9 16  1  0
 11 17  2  0
 11 18  1  0
 13 19  2  0
 13 20  1  0
 17 21  1  0
 18 22  1  0
 18 23  2  0
 19 24  1  0
 20 25  2  0
 21 26  2  0
 22 27  1  0
 24 28  2  0
  7 10  1  0
 12 17  1  0
 23 26  1  0
 25 28  1  0
  5 29  1  0
  6 30  1  0
  8 31  1  0
 10 32  1  0
 16 33  1  0
 16 34  1  0
 16 35  1  0
 19 36  1  0
 20 37  1  0
 21 38  1  0
 23 39  1  0
 24 40  1  0
 25 41  1  0
 26 42  1  0
 27 43  1  0
 27 44  1  0
 27 45  1  0
 28 46  1  0
M  END
> <Name>
CHEMBL63768

> <IC50 nM>
519

> <Molecule_ChEMBL_ID>
CHEMBL63768

> <Smiles>
COc1cccc2c1-c1ccc(NS(C)(=O)=O)c(Br)c1C(c1ccccc1)O2

$$$$
CHEMBL82546
  SciTegic08162514323D

 57 61  0  0  1  0            999 V2000
   -4.9570    7.4900   -0.0800 F   0  0
   -4.5610    6.2210   -0.0450 C   0  0
   -5.1470    5.3260    0.8670 C   0  0
   -3.5550    5.7730   -0.9180 C   0  0
   -4.7290    3.9840    0.9060 C   0  0
   -3.1350    4.4340   -0.8830 C   0  0
   -3.7210    3.5350    0.0310 C   0  0
   -3.3160    2.2380    0.0680 N   0  0
   -4.1540    1.1680    0.1270 N   0  0
   -2.0270    1.8090    0.0470 C   0  0
   -3.4960   -0.0220    0.1620 C   0  0
   -2.1820    0.4370    0.1230 C   0  0
   -0.7340    2.5120   -0.0330 C   0  0
   -0.9320   -0.4300    0.1860 C   0  0
    0.3950    1.7910   -0.2150 C   0  0
    0.3570    0.2600   -0.3850 C   0  0  1  0  0  0
    1.7290    2.5080   -0.2930 C   0  0
    1.5960   -0.4140    0.2710 C   0  0  1  0  0  0
    0.3960    0.0330   -1.9040 C   0  0
    2.8770    1.7520    0.3810 C   0  0
    1.6840   -1.9100   -0.0610 C   0  0  1  0  0  0
    2.9160    0.2910   -0.0680 C   0  0
    2.3300   -2.0470   -1.3050 O   0  0
    2.4770   -2.6990    0.9800 C   0  0
    2.3690   -4.1640    0.7540 C   0  0
    3.3980   -4.8520    0.0880 C   0  0
    1.2360   -4.8650    1.2050 C   0  0
    3.2970   -6.2380   -0.1270 C   0  0
    1.1330   -6.2500    0.9900 C   0  0
    2.1640   -6.9380    0.3240 C   0  0
    2.0680   -8.2500    0.1210 F   0  0
   -5.9200    5.6660    1.5410 H   0  0
   -3.1000    6.4570   -1.6210 H   0  0
   -5.1910    3.3130    1.6130 H   0  0
   -2.3590    4.1070   -1.5630 H   0  0
   -3.9200   -1.0160    0.2090 H   0  0
   -0.6970    3.5880    0.0430 H   0  0
   -1.1170   -1.3810   -0.3200 H   0  0
   -0.7890   -0.6740    1.2380 H   0  0
    1.9710    2.6600   -1.3440 H   0  0
    1.6540    3.5040    0.1480 H   0  0
    1.4770   -0.3400    1.3540 H   0  0
   -0.3930    0.5960   -2.3980 H   0  0
    1.3610    0.3380   -2.3130 H   0  0
    0.2540   -1.0220   -2.1410 H   0  0
    2.7600    1.7950    1.4650 H   0  0
    3.8240    2.2380    0.1520 H   0  0
    0.6720   -2.3070   -0.1580 H   0  0
    3.1070    0.2360   -1.1410 H   0  0
    3.7460   -0.2170    0.4240 H   0  0
    2.1580   -2.9470   -1.6190 H   0  0
    2.1350   -2.4610    1.9880 H   0  0
    3.5250   -2.4060    0.9690 H   0  0
    4.2720   -4.3200   -0.2600 H   0  0
    0.4390   -4.3440    1.7170 H   0  0
    4.0920   -6.7620   -0.6390 H   0  0
    0.2620   -6.7850    1.3380 H   0  0
  1  2  1  0
  2  3  2  0
  2  4  1  0
  3  5  1  0
  4  6  2  0
  5  7  2  0
  7  8  1  0
  8  9  1  0
  8 10  1  0
  9 11  2  0
 10 12  2  0
 10 13  1  0
 12 14  1  0
 13 15  2  0
 14 16  1  0
 15 17  1  0
 16 18  1  0
 16 19  1  0
 17 20  1  0
 18 21  1  0
 18 22  1  0
 21 23  1  0
 21 24  1  0
 24 25  1  0
 25 26  2  0
 25 27  1  0
 26 28  1  0
 27 29  2  0
 28 30  2  0
 30 31  1  0
  6  7  1  0
 11 12  1  0
 15 16  1  0
 20 22  1  0
 29 30  1  0
  3 32  1  0
  4 33  1  0
  5 34  1  0
  6 35  1  0
 11 36  1  0
 13 37  1  0
 14 38  1  0
 14 39  1  0
 17 40  1  0
 17 41  1  0
 18 42  1  0
 19 43  1  0
 19 44  1  0
 19 45  1  0
 20 46  1  0
 20 47  1  0
 21 48  1  0
 22 49  1  0
 22 50  1  0
 23 51  1  0
 24 52  1  0
 24 53  1  0
 26 54  1  0
 27 55  1  0
 28 56  1  0
 29 57  1  0
M  END
> <Name>
CHEMBL82546

> <IC50 nM>
2.8

> <Molecule_ChEMBL_ID>
CHEMBL82546

> <Smiles>
C[C@]12Cc3cnn(-c4ccc(F)cc4)c3C=C1CCC[C@@H]2[C@@H](O)Cc1ccc(F)cc1

$$$$
CHEMBL5287162
  SciTegic08162514323D

 57 60  0  0  0  0            999 V2000
    0.7800   -0.2270    0.9050 S   0  0
    1.5660   -1.1560    0.1120 O   0  0
    1.4720    1.0200    1.1800 O   0  0
   -0.5520    0.1320    0.0560 N   0  0
    0.4040   -0.9820    2.4100 C   0  0
   -0.4480    0.7860   -1.1100 C   0  0
    1.2750   -1.9450    2.9470 C   0  0
   -0.7730   -0.6330    3.0940 C   0  0
   -1.6080    1.1850   -1.8140 C   0  0
    0.8230    1.0860   -1.6520 C   0  0
    0.9690   -2.5600    4.1740 C   0  0
   -1.0790   -1.2480    4.3200 C   0  0
   -1.5100    1.8760   -3.0490 C   0  0
    0.9340    1.7750   -2.8800 C   0  0
   -0.2080   -2.2120    4.8610 C   0  0
   -0.2250    2.1840   -3.6030 C   0  0
   -2.7630    2.2710   -3.7440 C   0  0
   -0.5320   -2.8620    6.1580 C   0  0
   -0.1200    2.8530   -4.7970 N   0  0
   -2.5500    2.4340   -5.2530 C   0  0
   -1.3490   -1.9390    7.0620 C   0  0
    0.7220   -3.4030    6.8450 C   0  0
   -1.3790   -3.9660    5.5220 C   0  0
    1.0960    3.1300   -5.3740 C   0  0
   -1.3320    3.3230   -5.5300 C   0  0
    1.3010    4.2100   -5.8790 O   0  0
    2.1390    2.1150   -5.3740 C   0  0
    1.7560    0.8080   -5.3740 O   0  0
    3.5250    2.2870   -5.3740 C   0  0
    2.9430    0.1310   -5.3740 C   0  0
    4.0470    0.9930   -5.3740 C   0  0
   -1.4520   -0.1340    0.4010 H   0  0
    2.1790   -2.2120    2.4200 H   0  0
   -1.4410    0.1070    2.6800 H   0  0
   -2.5890    0.9650   -1.4140 H   0  0
    1.7270    0.7930   -1.1350 H   0  0
    1.6410   -3.2990    4.5830 H   0  0
   -1.9840   -0.9760    4.8430 H   0  0
    1.9300    1.9780   -3.2460 H   0  0
   -3.5520    1.5380   -3.5680 H   0  0
   -3.1090    3.2140   -3.3180 H   0  0
   -2.4040    1.4550   -5.7130 H   0  0
   -3.4410    2.8620   -5.7140 H   0  0
   -2.3570   -1.7810    6.6770 H   0  0
   -0.8700   -0.9640    7.1520 H   0  0
   -1.4380   -2.3600    8.0630 H   0  0
    1.1390   -4.2590    6.3140 H   0  0
    0.4970   -3.7200    7.8630 H   0  0
    1.4930   -2.6350    6.8980 H   0  0
   -0.7730   -4.5820    4.8580 H   0  0
   -1.8240   -4.6000    6.2880 H   0  0
   -2.1890   -3.5380    4.9310 H   0  0
   -1.1380    3.3490   -6.6030 H   0  0
   -1.5440    4.3480   -5.2230 H   0  0
    4.0760    3.2190   -5.3740 H   0  0
    3.0080   -0.9490   -5.3740 H   0  0
    5.0920    0.7120   -5.3740 H   0  0
  1  2  2  0
  1  3  2  0
  1  4  1  0
  1  5  1  0
  4  6  1  0
  5  7  2  0
  5  8  1  0
  6  9  2  0
  6 10  1  0
  7 11  1  0
  8 12  2  0
  9 13  1  0
 10 14  2  0
 11 15  2  0
 13 16  2  0
 13 17  1  0
 15 18  1  0
 16 19  1  0
 17 20  1  0
 18 21  1  0
 18 22  1  0
 18 23  1  0
 19 24  1  0
 19 25  1  0
 24 26  2  0
 24 27  1  0
 27 28  1  0
 27 29  2  0
 28 30  1  0
 29 31  1  0
 12 15  1  0
 14 16  1  0
 20 25  1  0
 30 31  2  0
  4 32  1  0
  7 33  1  0
  8 34  1  0
  9 35  1  0
 10 36  1  0
 11 37  1  0
 12 38  1  0
 14 39  1  0
 17 40  1  0
 17 41  1  0
 20 42  1  0
 20 43  1  0
 21 44  1  0
 21 45  1  0
 21 46  1  0
 22 47  1  0
 22 48  1  0
 22 49  1  0
 23 50  1  0
 23 51  1  0
 23 52  1  0
 25 53  1  0
 25 54  1  0
 29 55  1  0
 30 56  1  0
 31 57  1  0
M  END
> <Name>
CHEMBL5287162

> <IC50 nM>
1150

> <Molecule_ChEMBL_ID>
CHEMBL5287162

> <Smiles>
CC(C)(C)c1ccc(S(=O)(=O)Nc2ccc3c(c2)CCCN3C(=O)c2ccco2)cc1

$$$$
CHEMBL511812
  SciTegic08162514323D

 51 54  0  0  1  0            999 V2000
   -6.3400   -1.5470    0.6970 O   0  0
   -5.0350   -1.3090    0.4940 C   0  0
   -4.5840    0.0080    0.2600 C   0  0
   -4.1110   -2.3750    0.5140 C   0  0
   -3.2090    0.2730    0.0410 C   0  0
   -2.7400   -2.1230    0.2970 C   0  0
   -2.2640   -0.8030    0.0610 C   0  0
   -2.7910    1.6800   -0.2010 C   0  0
   -0.7970   -0.5800   -0.1820 C   0  0  1  0  0  0
   -1.3910    1.8120   -0.8120 C   0  0
   -0.4020    0.9160   -0.0620 C   0  0  2  0  0  0
    0.0940   -1.4040    0.8050 C   0  0
   -0.5390   -1.0450   -1.6250 C   0  0
    1.0640    1.1850   -0.4760 C   0  0
    1.4840   -0.7870    1.1330 C   0  0  1  0  0  0
   -1.8200   -1.1290   -2.4570 C   0  0
    2.0680    0.0820   -0.0180 C   0  0  1  0  0  0
    1.3670   -0.0120    2.3170 O   0  0
    2.3050   -0.7890   -1.1070 O   0  0
    3.4000    0.6660    0.3280 C   0  0
    3.8790    1.7890   -0.3730 C   0  0
    4.1760    0.0960    1.3520 C   0  0
    5.1330    2.3380   -0.0490 C   0  0
    5.4280    0.6440    1.6760 C   0  0
    5.9060    1.7660    0.9770 C   0  0
   -6.9610   -0.8090    0.6820 H   0  0
   -5.2990    0.8180    0.2500 H   0  0
   -4.4510   -3.3850    0.6910 H   0  0
   -2.0530   -2.9570    0.3130 H   0  0
   -3.5120    2.1800   -0.8510 H   0  0
   -2.8180    2.2070    0.7540 H   0  0
   -1.0720    2.8550   -0.7660 H   0  0
   -1.4140    1.5470   -1.8710 H   0  0
   -0.4840    1.1950    0.9900 H   0  0
   -0.4340   -1.5980    1.7420 H   0  0
    0.2580   -2.3990    0.3830 H   0  0
    0.1950   -0.4020   -2.1130 H   0  0
   -0.0120   -2.0000   -1.6350 H   0  0
    1.1230    1.3320   -1.5590 H   0  0
    1.3380    2.1540   -0.0570 H   0  0
    2.1740   -1.5940    1.3910 H   0  0
   -2.4420   -1.9590   -2.1230 H   0  0
   -2.3910   -0.2030   -2.3790 H   0  0
   -1.5880   -1.2890   -3.5100 H   0  0
    1.1540   -0.6230    3.0390 H   0  0
    2.9140   -1.4770   -0.7970 H   0  0
    3.2890    2.2320   -1.1600 H   0  0
    3.8140   -0.7680    1.8950 H   0  0
    5.5000    3.1990   -0.5860 H   0  0
    6.0230    0.2050    2.4630 H   0  0
    6.8690    2.1870    1.2250 H   0  0
  1  2  1  0
  2  3  2  0
  2  4  1  0
  3  5  1  0
  4  6  2  0
  5  7  2  0
  5  8  1  0
  7  9  1  0
  8 10  1  0
  9 11  1  0
  9 12  1  0
  9 13  1  0
 11 14  1  0
 12 15  1  0
 13 16  1  0
 14 17  1  0
 15 18  1  0
 17 19  1  0
 17 20  1  0
 20 21  2  0
 20 22  1  0
 21 23  1  0
 22 24  2  0
 23 25  2  0
  6  7  1  0
 10 11  1  0
 15 17  1  0
 24 25  1  0
  1 26  1  0
  3 27  1  0
  4 28  1  0
  6 29  1  0
  8 30  1  0
  8 31  1  0
 10 32  1  0
 10 33  1  0
 11 34  1  0
 12 35  1  0
 12 36  1  0
 13 37  1  0
 13 38  1  0
 14 39  1  0
 14 40  1  0
 15 41  1  0
 16 42  1  0
 16 43  1  0
 16 44  1  0
 18 45  1  0
 19 46  1  0
 21 47  1  0
 22 48  1  0
 23 49  1  0
 24 50  1  0
 25 51  1  0
M  END
> <Name>
CHEMBL511812

> <IC50 nM>
140

> <Molecule_ChEMBL_ID>
CHEMBL511812

> <Smiles>
CC[C@@]12C[C@H](O)[C@](O)(c3ccccc3)C[C@H]1CCc1cc(O)ccc12

$$$$
CHEMBL510216
  SciTegic08162514323D

 48 50  0  0  1  0            999 V2000
   -4.5370   -0.6990   -3.2560 O   0  0
   -3.4880   -0.4610   -2.4570 C   0  0
   -3.2790   -1.2600   -1.3100 C   0  0
   -2.5940    0.5900   -2.7580 C   0  0
   -2.1740   -1.0120   -0.4630 C   0  0
   -1.4900    0.8460   -1.9140 C   0  0
   -1.2640    0.0450   -0.7580 C   0  0
   -1.9530   -1.8380    0.7480 C   0  0
   -0.1050    0.2600    0.1720 C   0  0  1  0  0  0
   -0.4690   -2.1820    0.9880 C   0  0
    0.5430   -1.1270    0.4710 C   0  0  2  0  0  0
    0.9860    1.2070   -0.4000 C   0  0
   -0.6480    0.8830    1.4650 C   0  0
    1.7740   -1.0160    1.3970 C   0  0
    2.2070    1.3340    0.5270 C   0  0
   -1.6480    2.0100    1.2030 C   0  0
    2.8420   -0.0330    0.8650 C   0  0  1  0  0  0
   -2.0310    2.7660    2.4750 C   0  0
    3.8030    0.1640    1.8810 O   0  0
    3.5290   -0.5920   -0.3070 C   0  0
    4.0800   -1.0430   -1.2600 C   0  0
    4.7480   -1.6000   -2.4320 C   0  0
   -5.1410   -1.4200   -3.0390 H   0  0
   -3.9690   -2.0610   -1.0860 H   0  0
   -2.7540    1.1970   -3.6350 H   0  0
   -0.8300    1.6600   -2.1720 H   0  0
   -2.3420   -1.2790    1.6020 H   0  0
   -2.5370   -2.7600    0.7110 H   0  0
   -0.2420   -3.1330    0.5080 H   0  0
   -0.3300   -2.3560    2.0570 H   0  0
    0.9100   -1.5120   -0.4840 H   0  0
    0.5760    2.2050   -0.5600 H   0  0
    1.3240    0.8550   -1.3770 H   0  0
   -1.0880    0.1190    2.1060 H   0  0
    0.1680    1.2300    2.0960 H   0  0
    2.2030   -2.0080    1.5510 H   0  0
    1.4320   -0.6880    2.3810 H   0  0
    2.9420    2.0060    0.0780 H   0  0
    1.8890    1.8260    1.4490 H   0  0
   -1.2660    2.6950    0.4470 H   0  0
   -2.5350    1.6270    0.6990 H   0  0
   -2.7320    3.5680    2.2500 H   0  0
   -2.4840    2.0920    3.2010 H   0  0
   -1.1520    3.2130    2.9380 H   0  0
    4.3630    0.9060    1.6060 H   0  0
    4.0530   -2.2150   -3.0040 H   0  0
    5.5940   -2.2170   -2.1290 H   0  0
    5.1130   -0.7970   -3.0740 H   0  0
  1  2  1  0
  2  3  2  0
  2  4  1  0
  3  5  1  0
  4  6  2  0
  5  7  2  0
  5  8  1  0
  7  9  1  0
  8 10  1  0
  9 11  1  0
  9 12  1  0
  9 13  1  0
 11 14  1  0
 12 15  1  0
 13 16  1  0
 14 17  1  0
 16 18  1  0
 17 19  1  0
 17 20  1  0
 20 21  3  0
 21 22  1  0
  6  7  1  0
 10 11  1  0
 15 17  1  0
  1 23  1  0
  3 24  1  0
  4 25  1  0
  6 26  1  0
  8 27  1  0
  8 28  1  0
 10 29  1  0
 10 30  1  0
 11 31  1  0
 12 32  1  0
 12 33  1  0
 13 34  1  0
 13 35  1  0
 14 36  1  0
 14 37  1  0
 15 38  1  0
 15 39  1  0
 16 40  1  0
 16 41  1  0
 18 42  1  0
 18 43  1  0
 18 44  1  0
 19 45  1  0
 22 46  1  0
 22 47  1  0
 22 48  1  0
M  END
> <Name>
CHEMBL510216

> <IC50 nM>
5000

> <Molecule_ChEMBL_ID>
CHEMBL510216

> <Smiles>
CC#C[C@@]1(O)CC[C@@]2(CCC)c3ccc(O)cc3CC[C@@H]2C1

$$$$
CHEMBL456214
  SciTegic08162514323D

 43 45  0  0  1  0            999 V2000
   -4.6270    0.0060   -3.4100 O   0  0
   -3.5120    0.1480   -2.6800 C   0  0
   -3.5800    0.1290   -1.2700 C   0  0
   -2.2660    0.3260   -3.3150 C   0  0
   -2.4080    0.2910   -0.4820 C   0  0
   -1.0940    0.4960   -2.5430 C   0  0
   -1.1410    0.4880   -1.1210 C   0  0
   -2.5510    0.2440    0.9980 C   0  0
    0.1110    0.7130   -0.3200 C   0  0  1  0  0  0
   -1.3260    0.7380    1.7710 C   0  0
   -0.0470    0.1840    1.1370 C   0  0  2  0  0  0
    1.3650    0.0160   -0.9240 C   0  0
    0.3540    2.2360   -0.3010 C   0  0
    1.2090    0.4590    1.9980 C   0  0
    2.6430    0.2600   -0.0900 C   0  0
    0.6270    2.6560   -1.6190 O   0  0
    2.4810   -0.1660    1.3850 C   0  0  1  0  0  0
    3.5980    0.3090    2.1070 O   0  0
    2.4510   -1.6270    1.4980 C   0  0
    2.4120   -2.8140    1.5740 C   0  0
    2.3520   -4.2720    1.6520 C   0  0
   -5.4750   -0.1150   -2.9610 H   0  0
   -4.5370   -0.0100   -0.7870 H   0  0
   -2.2050    0.3380   -4.3930 H   0  0
   -0.1660    0.6350   -3.0700 H   0  0
   -3.4260    0.8160    1.3110 H   0  0
   -2.7540   -0.7890    1.2810 H   0  0
   -1.2990    1.8240    1.7770 H   0  0
   -1.4000    0.4300    2.8110 H   0  0
   -0.1680   -0.9020    1.1020 H   0  0
    1.1990   -1.0590   -1.0250 H   0  0
    1.5760    0.3750   -1.9280 H   0  0
    1.2170    2.4810    0.3180 H   0  0
   -0.5350    2.7620    0.0450 H   0  0
    1.3300    1.5390    2.0920 H   0  0
    1.0450    0.0980    3.0160 H   0  0
    3.4920   -0.2460   -0.5570 H   0  0
    2.8790    1.3240   -0.1390 H   0  0
    0.7770    3.6130   -1.5880 H   0  0
    4.3930    0.0080    1.6370 H   0  0
    3.3280   -4.7050    1.4360 H   0  0
    2.0430   -4.5840    2.6500 H   0  0
    1.6310   -4.6540    0.9280 H   0  0
  1  2  1  0
  2  3  2  0
  2  4  1  0
  3  5  1  0
  4  6  2  0
  5  7  2  0
  5  8  1  0
  7  9  1  0
  8 10  1  0
  9 11  1  0
  9 12  1  0
  9 13  1  0
 11 14  1  0
 12 15  1  0
 13 16  1  0
 14 17  1  0
 17 18  1  0
 17 19  1  0
 19 20  3  0
 20 21  1  0
  6  7  1  0
 10 11  1  0
 15 17  1  0
  1 22  1  0
  3 23  1  0
  4 24  1  0
  6 25  1  0
  8 26  1  0
  8 27  1  0
 10 28  1  0
 10 29  1  0
 11 30  1  0
 12 31  1  0
 12 32  1  0
 13 33  1  0
 13 34  1  0
 14 35  1  0
 14 36  1  0
 15 37  1  0
 15 38  1  0
 16 39  1  0
 18 40  1  0
 21 41  1  0
 21 42  1  0
 21 43  1  0
M  END
> <Name>
CHEMBL456214

> <IC50 nM>
1000

> <Molecule_ChEMBL_ID>
CHEMBL456214

> <Smiles>
CC#C[C@@]1(O)CC[C@@]2(CO)c3ccc(O)cc3CC[C@@H]2C1

$$$$
CHEMBL380623
  SciTegic08162514323D

 42 44  0  0  0  0            999 V2000
    3.3360    1.1460   -1.3400 O   0  0
    3.6500    0.2790   -0.3960 C   0  0
    4.3940    1.7580   -2.0630 C   0  0
    2.6680   -0.2360    0.4770 C   0  0
    4.9880   -0.1350   -0.2600 C   0  0
    1.2770    0.1780    0.3550 C   0  0
    3.0310   -1.1600    1.4750 C   0  0
    5.3480   -1.0570    0.7380 C   0  0
    0.2460   -0.7890    0.3050 C   0  0
    0.9450    1.5530    0.2850 C   0  0
    4.3690   -1.5680    1.6050 C   0  0
   -1.1110   -0.3910    0.1880 C   0  0
   -0.4020    1.9570    0.1660 C   0  0
   -1.4440    0.9940    0.1150 C   0  0
   -2.1970   -1.4140    0.1370 C   0  0
   -2.7370    1.3960    0.0020 N   0  0
   -3.4810   -1.0200    0.0250 C   0  0
   -1.8910   -2.8890    0.2070 C   0  0
   -3.8830    0.4430   -0.0510 C   0  0
   -4.6370    0.6620   -1.3670 C   0  0
   -4.8170    0.7420    1.1250 C   0  0
    3.9610    2.4450   -2.7870 H   0  0
    5.0940    2.1890   -1.3480 H   0  0
    4.9220    0.9800   -2.6170 H   0  0
    5.7440    0.2560   -0.9240 H   0  0
    2.2910   -1.5650    2.1500 H   0  0
    6.3750   -1.3710    0.8380 H   0  0
    0.4960   -1.8400    0.3570 H   0  0
    1.7170    2.3090    0.3200 H   0  0
    4.6440   -2.2770    2.3710 H   0  0
   -0.6250    3.0160    0.1150 H   0  0
   -2.9510    2.3730   -0.0510 H   0  0
   -4.2580   -1.7700   -0.0100 H   0  0
   -2.7370   -3.5240   -0.0570 H   0  0
   -1.5760   -3.1540    1.2170 H   0  0
   -1.0700   -3.1310   -0.4710 H   0  0
   -4.0060    0.4590   -2.2320 H   0  0
   -4.9870    1.6890   -1.4430 H   0  0
   -5.5060    0.0080   -1.4260 H   0  0
   -4.3210    0.5980    2.0840 H   0  0
   -5.6900    0.0900    1.1000 H   0  0
   -5.1700    1.7710    1.0840 H   0  0
  1  2  1  0
  1  3  1  0
  2  4  2  0
  2  5  1  0
  4  6  1  0
  4  7  1  0
  5  8  2  0
  6  9  2  0
  6 10  1  0
  7 11  2  0
  9 12  1  0
 10 13  2  0
 12 14  2  0
 12 15  1  0
 14 16  1  0
 15 17  2  0
 15 18  1  0
 16 19  1  0
 19 20  1  0
 19 21  1  0
  8 11  1  0
 13 14  1  0
 17 19  1  0
  3 22  1  0
  3 23  1  0
  3 24  1  0
  5 25  1  0
  7 26  1  0
  8 27  1  0
  9 28  1  0
 10 29  1  0
 11 30  1  0
 13 31  1  0
 16 32  1  0
 17 33  1  0
 18 34  1  0
 18 35  1  0
 18 36  1  0
 20 37  1  0
 20 38  1  0
 20 39  1  0
 21 40  1  0
 21 41  1  0
 21 42  1  0
M  END
> <Name>
CHEMBL380623

> <IC50 nM>
2000

> <Molecule_ChEMBL_ID>
CHEMBL380623

> <Smiles>
COc1ccccc1-c1ccc2c(c1)C(C)=CC(C)(C)N2

$$$$
CHEMBL182842
  SciTegic08162514323D

 63 66  0  0  0  0            999 V2000
   -0.7300    6.6860    0.2230 S   0  0
    0.2420    7.7560    0.0760 O   0  0
   -1.6540    6.5940   -0.8930 O   0  0
    0.0900    5.2910    0.2930 N   0  0
   -1.6620    6.9570    1.7250 C   0  0
   -0.5530    4.1040    0.0390 C   0  0
    0.1720    2.9260   -0.2580 C   0  0
   -1.9610    4.0720    0.0780 C   0  0
   -0.5270    1.7210   -0.5140 C   0  0
    1.6660    2.9510   -0.3030 C   0  0
   -2.6460    2.8750   -0.1760 C   0  0
    0.1390    0.5590   -0.8070 N   0  0
   -1.9360    1.7030   -0.4710 C   0  0
    1.0720   -0.0430    0.1580 C   0  0
   -0.0740   -0.1070   -2.1000 C   0  0
    0.4840   -1.2380    0.8160 C   0  0
    0.4940    0.6840   -3.2230 C   0  0
   -0.3870   -1.0820    1.9080 C   0  0
    0.8010   -2.5250    0.3500 C   0  0
   -0.2600    1.7130   -3.8130 C   0  0
    1.7890    0.4020   -3.6970 C   0  0
   -0.9430   -2.2130    2.5330 C   0  0
    0.2440   -3.6560    0.9750 C   0  0
    0.2770    2.4610   -4.8730 C   0  0
    2.3260    1.1500   -4.7580 C   0  0
   -0.6290   -3.5020    2.0660 C   0  0
    1.5700    2.1800   -5.3480 C   0  0
   -1.2190   -4.7030    2.7290 C   0  0
   -2.3070   -4.6520    3.2500 O   0  0
   -0.4260   -5.9670    2.7290 C   0  0
   -1.0820   -7.2110    2.7290 C   0  0
    0.9810   -5.9180    2.7290 C   0  0
   -0.3360   -8.4020    2.7290 C   0  0
    1.7270   -7.1090    2.7290 C   0  0
    1.0680   -8.3520    2.7290 C   0  0
    1.0630    5.2930    0.5220 H   0  0
   -2.3180    7.8280    1.6950 H   0  0
   -0.9750    7.0880    2.5610 H   0  0
   -2.2790    6.0820    1.9340 H   0  0
   -2.5290    4.9630    0.3050 H   0  0
    2.0270    2.1130   -0.8980 H   0  0
    2.0020    3.9160   -0.6840 H   0  0
    2.0610    2.8360    0.7070 H   0  0
   -3.7270    2.8570   -0.1450 H   0  0
   -2.4860    0.7930   -0.6640 H   0  0
    1.3340    0.6990    0.9140 H   0  0
    1.9880   -0.3260   -0.3590 H   0  0
   -1.1440   -0.2460   -2.2600 H   0  0
    0.3910   -1.0940   -2.0780 H   0  0
   -0.6350   -0.0960    2.2720 H   0  0
    1.4710   -2.6520   -0.4880 H   0  0
   -1.2540    1.9360   -3.4530 H   0  0
    2.3730   -0.3870   -3.2500 H   0  0
   -1.6130   -2.0820    3.3710 H   0  0
    0.4940   -4.6430    0.6070 H   0  0
   -0.3030    3.2520   -5.3260 H   0  0
    3.3200    0.9340   -5.1230 H   0  0
    1.9840    2.7540   -6.1620 H   0  0
   -2.1620   -7.2600    2.7290 H   0  0
    1.4960   -4.9690    2.7290 H   0  0
   -0.8420   -9.3580    2.7290 H   0  0
    2.8070   -7.0700    2.7290 H   0  0
    1.6430   -9.2660    2.7290 H   0  0
  1  2  2  0
  1  3  2  0
  1  4  1  0
  1  5  1  0
  4  6  1  0
  6  7  2  0
  6  8  1  0
  7  9  1  0
  7 10  1  0
  8 11  2  0
  9 12  1  0
  9 13  2  0
 12 14  1  0
 12 15  1  0
 14 16  1  0
 15 17  1  0
 16 18  2  0
 16 19  1  0
 17 20  2  0
 17 21  1  0
 18 22  1  0
 19 23  2  0
 20 24  1  0
 21 25  2  0
 22 26  2  0
 24 27  2  0
 26 28  1  0
 28 29  2  0
 28 30  1  0
 30 31  2  0
 30 32  1  0
 31 33  1  0
 32 34  2  0
 33 35  2  0
 11 13  1  0
 23 26  1  0
 25 27  1  0
 34 35  1  0
  4 36  1  0
  5 37  1  0
  5 38  1  0
  5 39  1  0
  8 40  1  0
 10 41  1  0
 10 42  1  0
 10 43  1  0
 11 44  1  0
 13 45  1  0
 14 46  1  0
 14 47  1  0
 15 48  1  0
 15 49  1  0
 18 50  1  0
 19 51  1  0
 20 52  1  0
 21 53  1  0
 22 54  1  0
 23 55  1  0
 24 56  1  0
 25 57  1  0
 27 58  1  0
 31 59  1  0
 32 60  1  0
 33 61  1  0
 34 62  1  0
 35 63  1  0
M  END
> <Name>
CHEMBL182842

> <IC50 nM>
13

> <Molecule_ChEMBL_ID>
CHEMBL182842

> <Smiles>
Cc1c(NS(C)(=O)=O)cccc1N(Cc1ccccc1)Cc1ccc(C(=O)c2ccccc2)cc1

$$$$
CHEMBL189306
  SciTegic08162514323D

 80 83  0  0  1  0            999 V2000
    5.3300   -5.1560    0.2680 O   0  0
    4.1470   -4.9200    0.3180 C   0  0
    3.1700   -6.0180    0.4390 C   0  0
    3.6230   -3.5060    0.2540 C   0  0
    1.8560   -5.7910    0.6560 C   0  0
    2.3480   -3.3180    1.0900 C   0  0
    1.3240   -4.4180    0.8500 C   0  0
    0.8930   -6.9550    0.6910 C   0  0
   -0.0120   -4.1660    0.8160 C   0  0
   -0.4140   -6.5630    0.0000 C   0  0
   -1.0270   -5.2910    0.6250 C   0  0  3  0  0  0
   -0.5800   -2.7660    0.9840 C   0  0  2  0  0  0
   -2.2300   -4.8540   -0.2380 C   0  0  3  0  0  0
   -2.0880   -2.7990    1.2990 C   0  0
   -0.2830   -1.9000   -0.2480 C   0  0
   -2.8810   -3.5160    0.1930 C   0  0  2  0  0  0
   -3.3650   -5.8890   -0.1970 C   0  0
    0.6150   -0.7050    0.0700 C   0  0
   -4.2680   -3.9490    0.7050 C   0  0  2  0  0  0
   -3.0200   -2.6430   -1.0640 C   0  0
   -4.6500   -5.0740   -0.2480 C   0  0
    0.0160    0.6230   -0.3910 C   0  0
   -5.2250   -2.9040    0.6660 O   0  0
    0.9020    1.8200   -0.0550 C   0  0
    0.2950    3.1500   -0.5040 C   0  0
    1.1840    4.3480   -0.1660 C   0  0
    0.5780    5.6780   -0.6150 C   0  0
    1.4650    6.8770   -0.2790 C   0  0
    0.8590    8.2050   -0.7290 C   0  0
    1.7460    9.4040   -0.3910 C   0  0
    1.1410   10.7330   -0.8420 C   0  0
    2.0270   11.9320   -0.5040 C   0  0
    3.5270   -7.0330    0.3460 H   0  0
    3.4180   -3.2580   -0.7890 H   0  0
    4.3950   -2.8130    0.5920 H   0  0
    2.6080   -3.3200    2.1500 H   0  0
    1.9470   -2.3300    0.8830 H   0  0
    1.3220   -7.8280    0.1970 H   0  0
    0.7030   -7.2360    1.7290 H   0  0
   -0.2130   -6.3930   -1.0590 H   0  0
   -1.1170   -7.3950    0.0510 H   0  0
   -1.3940   -5.5530    1.6190 H   0  0
   -0.0940   -2.2990    1.8420 H   0  0
   -1.8830   -4.7720   -1.2620 H   0  0
   -2.2280   -3.3170    2.2500 H   0  0
   -2.4690   -1.7890    1.4490 H   0  0
    0.1500   -2.5040   -1.0470 H   0  0
   -1.2090   -1.5720   -0.7210 H   0  0
   -3.3010   -6.5940   -1.0140 H   0  0
   -3.3420   -6.4570    0.7230 H   0  0
    0.8480   -0.6720    1.1350 H   0  0
    1.6090   -0.8460   -0.3520 H   0  0
   -4.2190   -4.3180    1.7210 H   0  0
   -3.0860   -1.5840   -0.8180 H   0  0
   -3.9160   -2.9120   -1.6230 H   0  0
   -2.1640   -2.7790   -1.7250 H   0  0
   -5.5080   -5.6370    0.0900 H   0  0
   -4.8460   -4.7130   -1.2500 H   0  0
   -0.2050    0.5960   -1.4590 H   0  0
   -0.9860    0.7580    0.0200 H   0  0
   -4.9300   -2.2250    1.2950 H   0  0
    1.1310    1.8440    1.0120 H   0  0
    1.9000    1.6910   -0.4730 H   0  0
    0.0660    3.1290   -1.5680 H   0  0
   -0.7010    3.2790   -0.0840 H   0  0
    1.4120    4.3710    0.8980 H   0  0
    2.1820    4.2190   -0.5860 H   0  0
    0.3480    5.6560   -1.6820 H   0  0
   -0.4200    5.8090   -0.1970 H   0  0
    1.6930    6.8980    0.7870 H   0  0
    2.4630    6.7460   -0.6970 H   0  0
    0.6290    8.1840   -1.7950 H   0  0
   -0.1390    8.3360   -0.3090 H   0  0
    1.9750    9.4260    0.6740 H   0  0
    2.7440    9.2740   -0.8110 H   0  0
    0.9100   10.7110   -1.9060 H   0  0
    0.1430   10.8630   -0.4220 H   0  0
    1.5670   12.8600   -0.8420 H   0  0
    2.2030   11.9900    0.5700 H   0  0
    2.9960   11.8420   -0.9960 H   0  0
  1  2  2  0
  2  3  1  0
  2  4  1  0
  3  5  2  0
  4  6  1  0
  5  7  1  0
  5  8  1  0
  7  9  2  0
  8 10  1  0
  9 11  1  0
  9 12  1  0
 11 13  1  0
 12 14  1  0
 12 15  1  0
 13 16  1  0
 13 17  1  0
 15 18  1  0
 16 19  1  0
 16 20  1  0
 17 21  1  0
 18 22  1  0
 19 23  1  0
 22 24  1  0
 24 25  1  0
 25 26  1  0
 26 27  1  0
 27 28  1  0
 28 29  1  0
 29 30  1  0
 30 31  1  0
 31 32  1  0
  6  7  1  0
 10 11  1  0
 14 16  1  0
 19 21  1  0
  3 33  1  0
  4 34  1  0
  4 35  1  0
  6 36  1  0
  6 37  1  0
  8 38  1  0
  8 39  1  0
 10 40  1  0
 10 41  1  0
 11 42  1  0
 12 43  1  0
 13 44  1  0
 14 45  1  0
 14 46  1  0
 15 47  1  0
 15 48  1  0
 17 49  1  0
 17 50  1  0
 18 51  1  0
 18 52  1  0
 19 53  1  0
 20 54  1  0
 20 55  1  0
 20 56  1  0
 21 57  1  0
 21 58  1  0
 22 59  1  0
 22 60  1  0
 23 61  1  0
 24 62  1  0
 24 63  1  0
 25 64  1  0
 25 65  1  0
 26 66  1  0
 26 67  1  0
 27 68  1  0
 27 69  1  0
 28 70  1  0
 28 71  1  0
 29 72  1  0
 29 73  1  0
 30 74  1  0
 30 75  1  0
 31 76  1  0
 31 77  1  0
 32 78  1  0
 32 79  1  0
 32 80  1  0
M  END
> <Name>
CHEMBL189306

> <IC50 nM>
870

> <Molecule_ChEMBL_ID>
CHEMBL189306

> <Smiles>
CCCCCCCCCCCC[C@H]1C[C@@]2(C)C(CC[C@@H]2O)C2CCC3=CC(=O)CCC3=C21

$$$$
CHEMBL203657
  SciTegic08162514323D

 52 54  0  0  0  0            999 V2000
   -2.2990   -2.2810   -0.4320 S   0  0
   -1.0160   -1.3540    0.4550 C   0  0
   -1.6580   -3.9590   -0.1680 C   0  0
   -1.3220    0.1230    0.3850 C   0  0
   -2.5740   -4.9550   -0.8280 C   0  0
   -0.2360    1.1460    0.4360 C   0  0
   -2.6050    0.5150    0.2750 C   0  0
   -3.5630   -4.5940   -1.4220 O   0  0
   -2.2090   -6.2290   -0.7050 O   0  0
   -0.5680    2.5290    0.3650 C   0  0
    1.1190    0.7460    0.5550 C   0  0
   -3.0080    1.9780    0.1990 C   0  0
   -3.1150   -7.1150   -1.3440 C   0  0
   -1.8610    2.9320    0.2520 N   0  0
    0.4730    3.4940    0.4160 C   0  0
    2.1520    1.7130    0.6030 C   0  0
   -3.7620    2.1970   -1.1170 C   0  0
   -3.9410    2.2770    1.3750 C   0  0
    1.8200    3.0880    0.5330 C   0  0
    3.5450    1.2990    0.7270 C   0  0
    4.1840    0.6070   -0.3260 C   0  0
    4.2540    1.5940    1.9060 C   0  0
    3.5410    0.3200   -1.4410 O   0  0
    5.5270    0.2170   -0.1860 C   0  0
    5.5960    1.1990    2.0370 C   0  0
    2.9080    1.3830   -2.1410 C   0  0
    6.2330    0.5120    0.9920 C   0  0
   -0.0430   -1.5530    0.0020 H   0  0
   -0.9860   -1.6780    1.4960 H   0  0
   -0.6580   -4.0370   -0.5920 H   0  0
   -1.6000   -4.1620    0.9020 H   0  0
   -3.3830   -0.2350    0.2380 H   0  0
    1.3710   -0.3050    0.6070 H   0  0
   -2.7130   -8.1250   -1.2700 H   0  0
   -4.1050   -6.9570   -0.9140 H   0  0
   -3.1640   -6.8520   -2.4000 H   0  0
   -2.0760    3.9080    0.1990 H   0  0
    0.2500    4.5510    0.3630 H   0  0
   -3.1310    1.9940   -1.9820 H   0  0
   -4.1130    3.2250   -1.1930 H   0  0
   -4.6310    1.5430   -1.1760 H   0  0
   -3.4450    2.1350    2.3340 H   0  0
   -4.8140    1.6230    1.3500 H   0  0
   -4.2970    3.3070    1.3320 H   0  0
    2.5920    3.8440    0.5700 H   0  0
    3.7790    2.1230    2.7210 H   0  0
    6.0220   -0.3130   -0.9860 H   0  0
    6.1390    1.4280    2.9430 H   0  0
    3.3280    2.3790   -1.9980 H   0  0
    1.8610    1.4140   -1.8360 H   0  0
    2.9380    1.1560   -3.2050 H   0  0
    7.2660    0.2090    1.0940 H   0  0
  1  2  1  0
  1  3  1  0
  2  4  1  0
  3  5  1  0
  4  6  1  0
  4  7  2  0
  5  8  2  0
  5  9  1  0
  6 10  2  0
  6 11  1  0
  7 12  1  0
  9 13  1  0
 10 14  1  0
 10 15  1  0
 11 16  2  0
 12 17  1  0
 12 18  1  0
 15 19  2  0
 16 20  1  0
 20 21  2  0
 20 22  1  0
 21 23  1  0
 21 24  1  0
 22 25  2  0
 23 26  1  0
 24 27  2  0
 12 14  1  0
 16 19  1  0
 25 27  1  0
  2 28  1  0
  2 29  1  0
  3 30  1  0
  3 31  1  0
  7 32  1  0
 11 33  1  0
 13 34  1  0
 13 35  1  0
 13 36  1  0
 14 37  1  0
 15 38  1  0
 17 39  1  0
 17 40  1  0
 17 41  1  0
 18 42  1  0
 18 43  1  0
 18 44  1  0
 19 45  1  0
 22 46  1  0
 24 47  1  0
 25 48  1  0
 26 49  1  0
 26 50  1  0
 26 51  1  0
 27 52  1  0
M  END
> <Name>
CHEMBL203657

> <IC50 nM>
2000

> <Molecule_ChEMBL_ID>
CHEMBL203657

> <Smiles>
COC(=O)CSCC1=CC(C)(C)Nc2ccc(-c3ccccc3OC)cc21

$$$$
CHEMBL183540
  SciTegic08162514323D

 80 84  0  0  1  0            999 V2000
    5.9200   -0.6430   -4.4040 O   0  0
    4.7480   -0.5610   -4.1230 C   0  0
    3.8520    0.2990   -4.9200 C   0  0
    4.1740   -1.3260   -2.9530 C   0  0
    2.5280    0.3870   -4.6620 C   0  0
    2.6600   -1.5960   -3.0700 C   0  0
    1.8950   -0.3850   -3.5700 C   0  0
    1.6310    1.2870   -5.4710 C   0  0
    0.6920   -0.0100   -3.0630 C   0  0
    0.8150    2.1540   -4.5160 C   0  0
   -0.0990   -0.9000   -2.1070 C   0  0  1  0  0  0
    0.0760    1.3460   -3.4160 C   0  0  1  0  0  0
    0.2620   -0.5920   -0.7010 C   0  0
   -1.6370   -0.8400   -2.3380 C   0  0
   -1.4430    1.2280   -3.6780 C   0  0  1  0  0  0
    1.2850    0.3340   -0.4240 C   0  0
   -0.4160   -1.2230    0.3550 C   0  0
   -2.1540    0.6070   -2.4610 C   0  0  1  0  0  0
   -2.1890    2.5570   -3.8110 C   0  0
    1.6270    0.6250    0.9080 C   0  0
   -0.0720   -0.9300    1.6880 C   0  0
   -3.6540    0.8650   -2.7700 C   0  0  2  0  0  0
   -1.8050    1.4140   -1.1950 C   0  0
   -3.6460    2.2520   -3.4470 C   0  0
    0.9490   -0.0060    1.9670 C   0  0
   -4.4370    0.9080   -1.5840 O   0  0
   -4.2640   -0.1500   -3.6450 C   0  0
    1.2700    0.2680    3.2170 O   0  0
   -4.7810   -0.9670   -4.3400 C   0  0
    0.5570   -0.3950    4.2480 C   0  0
   -5.4280   -1.9630   -5.1880 C   0  0
    1.0840    0.0640    5.6090 C   0  0  1  0  0  0
    0.8520    1.4490    5.7270 O   0  0
    0.3910   -0.6390    6.7770 C   0  0
    1.2360   -0.6350    8.0510 C   0  0  1  0  0  0
    1.2360    0.6720    8.5780 O   0  0
    0.6920   -1.5820    9.1230 C   0  0
    1.6040   -1.6840   10.3170 C   0  0
    2.7310   -1.2460   10.2780 O   0  0
    1.0740   -2.2750   11.3830 O   0  0
    4.2740    0.8690   -5.7330 H   0  0
    4.3730   -0.7560   -2.0430 H   0  0
    4.7050   -2.2740   -2.8400 H   0  0
    2.3070   -1.9140   -2.0900 H   0  0
    2.4830   -2.4240   -3.7520 H   0  0
    0.9670    0.6700   -6.0800 H   0  0
    2.2050    1.9120   -6.1540 H   0  0
    1.5040    2.8460   -4.0270 H   0  0
    0.1270    2.7830   -5.0800 H   0  0
    0.1780   -1.9380   -2.2680 H   0  0
    0.1930    1.9590   -2.5250 H   0  0
   -1.8830   -1.4160   -3.2440 H   0  0
   -2.1620   -1.3460   -1.5220 H   0  0
   -1.6090    0.6330   -4.5720 H   0  0
    1.8110    0.8220   -1.2300 H   0  0
   -1.2030   -1.9340    0.1500 H   0  0
   -2.1030    2.9820   -4.7990 H   0  0
   -1.7870    3.2810   -3.1150 H   0  0
    2.4120    1.3360    1.1170 H   0  0
   -0.5980   -1.4180    2.4960 H   0  0
   -2.1500    2.4450   -1.2620 H   0  0
   -0.7240    1.4340   -1.0390 H   0  0
   -2.2620    0.9650   -0.3140 H   0  0
   -4.0160    3.0330   -2.7950 H   0  0
   -4.2710    2.2930   -4.3340 H   0  0
   -5.3050    1.2700   -1.8240 H   0  0
    0.6950   -1.4690    4.1250 H   0  0
   -0.5020   -0.1520    4.1430 H   0  0
   -4.7830   -2.8360   -5.2870 H   0  0
   -5.6110   -1.5470   -6.1780 H   0  0
   -6.3770   -2.2720   -4.7560 H   0  0
    2.1600   -0.1040    5.6410 H   0  0
    1.4810    1.8960    5.1390 H   0  0
    0.1090   -1.6540    6.5040 H   0  0
   -0.5900   -0.1990    6.9650 H   0  0
    2.2620   -0.8970    7.7910 H   0  0
    1.9710    1.1480    8.1580 H   0  0
    0.6000   -2.5570    8.6430 H   0  0
   -0.3030   -1.2720    9.4420 H   0  0
    1.6080   -2.3710   12.1820 H   0  0
  1  2  2  0
  2  3  1  0
  2  4  1  0
  3  5  2  0
  4  6  1  0
  5  7  1  0
  5  8  1  0
  7  9  2  0
  8 10  1  0
  9 11  1  0
  9 12  1  0
 11 13  1  0
 11 14  1  0
 12 15  1  0
 13 16  2  0
 13 17  1  0
 14 18  1  0
 15 19  1  0
 16 20  1  0
 17 21  2  0
 18 22  1  0
 18 23  1  0
 19 24  1  0
 20 25  2  0
 22 26  1  0
 22 27  1  0
 25 28  1  0
 27 29  3  0
 28 30  1  0
 29 31  1  0
 30 32  1  0
 32 33  1  0
 32 34  1  0
 34 35  1  0
 35 36  1  0
 35 37  1  0
 37 38  1  0
 38 39  2  0
 38 40  1  0
  6  7  1  0
 12 10  1  0
 15 18  1  0
 21 25  1  0
 22 24  1  0
  3 41  1  0
  4 42  1  0
  4 43  1  0
  6 44  1  0
  6 45  1  0
  8 46  1  0
  8 47  1  0
 10 48  1  0
 10 49  1  0
 11 50  1  0
 12 51  1  0
 14 52  1  0
 14 53  1  0
 15 54  1  0
 16 55  1  0
 17 56  1  0
 19 57  1  0
 19 58  1  0
 20 59  1  0
 21 60  1  0
 23 61  1  0
 23 62  1  0
 23 63  1  0
 24 64  1  0
 24 65  1  0
 26 66  1  0
 30 67  1  0
 30 68  1  0
 31 69  1  0
 31 70  1  0
 31 71  1  0
 32 72  1  0
 33 73  1  0
 34 74  1  0
 34 75  1  0
 35 76  1  0
 36 77  1  0
 37 78  1  0
 37 79  1  0
 40 80  1  0
M  END
> <Name>
CHEMBL183540

> <IC50 nM>
9.2

> <Molecule_ChEMBL_ID>
CHEMBL183540

> <Smiles>
CC#C[C@]1(O)CC[C@H]2[C@@H]3CCC4=CC(=O)CCC4=C3[C@@H](c3ccc(OC[C@@H](O)C[C@@H](O)CC(=O)O)cc3)C[C@@]21C

$$$$
CHEMBL193703
  SciTegic08162514323D

 57 61  0  0  1  0            999 V2000
   -8.4060   -3.2420    1.1910 F   0  0
   -7.4040   -2.4300    0.8650 C   0  0
   -6.1970   -2.4800    1.5800 C   0  0
   -7.5550   -1.5190   -0.1970 C   0  0
   -5.1370   -1.6230    1.2360 C   0  0
   -6.4980   -0.6600   -0.5430 C   0  0
   -5.2850   -0.7110    0.1740 C   0  0
   -4.2640    0.1190   -0.1600 N   0  0
   -4.4000    1.4430   -0.4470 N   0  0
   -2.9550   -0.2340   -0.2580 C   0  0
   -3.2230    2.0510   -0.7580 C   0  0
   -2.3610    0.9630   -0.6350 C   0  0
   -2.2250   -1.5040   -0.0590 C   0  0
   -0.8520    0.9650   -0.8910 C   0  0
   -0.8770   -1.4260   -0.0470 C   0  0
   -0.1330   -0.1010   -0.0120 C   0  0  1  0  0  0
    0.0620   -2.5900   -0.1080 C   0  0
    1.3030   -0.5370   -0.4590 C   0  0
   -0.1560    0.3930    1.4430 C   0  0
    1.2090   -2.0080   -0.9320 C   0  0
    1.8440    0.2750   -1.4880 O   0  0
    2.2680   -0.4370    0.5820 O   0  0
    2.8570    1.1060   -0.9670 C   0  0  1  0  0  0
    3.4320    0.2030    0.1150 C   0  0  1  0  0  0
    3.8360    1.4730   -2.0740 C   0  0
    4.1040    0.9450    1.2640 C   0  0
    4.7380    2.4300   -1.5670 O   0  0
    4.6130   -0.0100    2.1680 O   0  0
    5.6950    2.8480   -2.5120 C   0  0
    5.2580    0.5670    3.2810 C   0  0
   -6.0780   -3.1780    2.3960 H   0  0
   -8.4830   -1.4780   -0.7500 H   0  0
   -4.2150   -1.6760    1.7990 H   0  0
   -6.6310    0.0310   -1.3610 H   0  0
   -3.0570    3.0860   -1.0220 H   0  0
   -2.7460   -2.4450    0.0550 H   0  0
   -0.7050    0.7440   -1.9490 H   0  0
   -0.4360    1.9590   -0.7150 H   0  0
   -0.3890   -3.4490   -0.5840 H   0  0
    0.3810   -2.8610    0.8890 H   0  0
    0.2400   -0.3530    2.1330 H   0  0
   -1.1760    0.6250    1.7540 H   0  0
    0.4390    1.2990    1.5530 H   0  0
    2.1270   -2.5660   -0.8110 H   0  0
    0.9430   -2.0570   -1.9790 H   0  0
    2.3890    1.9850   -0.5430 H   0  0
    4.0860   -0.5510   -0.3050 H   0  0
    3.3110    1.9180   -2.9200 H   0  0
    4.4080    0.6020   -2.3890 H   0  0
    4.9380    1.5450    0.9000 H   0  0
    3.3830    1.5650    1.7970 H   0  0
    6.4240    3.5880   -2.1820 H   0  0
    5.1680    3.2620   -3.3710 H   0  0
    6.2440    1.9690   -2.8500 H   0  0
    5.5510   -0.2360    3.9570 H   0  0
    6.0570    1.2090    2.9120 H   0  0
    4.5370    1.1950    3.8030 H   0  0
  1  2  1  0
  2  3  2  0
  2  4  1  0
  3  5  1  0
  4  6  2  0
  5  7  2  0
  7  8  1  0
  8  9  1  0
  8 10  1  0
  9 11  2  0
 10 12  2  0
 10 13  1  0
 12 14  1  0
 13 15  2  0
 14 16  1  0
 15 17  1  0
 16 18  1  0
 16 19  1  0
 17 20  1  0
 18 21  1  0
 18 22  1  0
 21 23  1  0
 22 24  1  0
 23 25  1  0
 24 26  1  0
 25 27  1  0
 26 28  1  0
 27 29  1  0
 28 30  1  0
  6  7  1  0
 11 12  1  0
 15 16  1  0
 18 20  1  0
 23 24  1  0
  3 31  1  0
  4 32  1  0
  5 33  1  0
  6 34  1  0
 11 35  1  0
 13 36  1  0
 14 37  1  0
 14 38  1  0
 17 39  1  0
 17 40  1  0
 19 41  1  0
 19 42  1  0
 19 43  1  0
 20 44  1  0
 20 45  1  0
 23 46  1  0
 24 47  1  0
 25 48  1  0
 25 49  1  0
 26 50  1  0
 26 51  1  0
 29 52  1  0
 29 53  1  0
 29 54  1  0
 30 55  1  0
 30 56  1  0
 30 57  1  0
M  END
> <Name>
CHEMBL193703

> <IC50 nM>
26

> <Molecule_ChEMBL_ID>
CHEMBL193703

> <Smiles>
COC[C@H]1OC2(CCC3=Cc4c(cnn4-c4ccc(F)cc4)C[C@@]32C)O[C@@H]1COC

$$$$
CHEMBL363151
  SciTegic08162514323D

 65 69  0  0  1  0            999 V2000
   -5.2890   -2.9420    0.2770 O   0  0
   -4.3360   -2.2010    0.3110 C   0  0
   -3.4750   -2.1410    1.5020 C   0  0
   -3.9920   -1.3180   -0.8570 C   0  0
   -2.3510   -1.3890    1.5680 C   0  0
   -2.4760   -1.0880   -0.9430 C   0  0
   -1.8570   -0.5550    0.3810 C   0  0  2  0  0  0
   -1.5680   -1.3610    2.8630 C   0  0
   -0.3220   -0.5000    0.3280 C   0  0
   -2.3420    0.8830    0.6110 C   0  0
   -0.0720   -1.5330    2.6210 C   0  0
    0.3520   -0.4490   -0.8520 C   0  0
    0.4430   -0.4710    1.6470 C   0  0  1  0  0  0
   -2.4590    1.6330   -0.6680 C   0  0
    1.8650   -0.3850   -0.9320 C   0  0
    1.9610   -0.6720    1.4860 C   0  0  1  0  0  0
   -1.3010    2.0450   -1.3520 C   0  0
   -3.7260    1.9320   -1.1950 C   0  0
    2.5060    0.1850    0.3420 C   0  0  1  0  0  0
    2.8380   -0.2790    2.6800 C   0  0
   -1.4120    2.7540   -2.5590 C   0  0
   -3.8380    2.6410   -2.4040 C   0  0
    4.0330    0.0350    0.5530 C   0  0  2  0  0  0
    2.0900    1.6520    0.5390 C   0  0
    4.1540    0.2320    2.0760 C   0  0
   -2.6800    3.0530   -3.0880 C   0  0
    4.7580    1.0410   -0.1430 O   0  0
    4.5650   -1.2760    0.1390 C   0  0
   -2.7970    3.8030   -4.3650 C   0  0
    4.9980   -2.3340   -0.1950 C   0  0
    5.5310   -3.6290   -0.6090 C   0  0
   -3.7680   -2.7290    2.3610 H   0  0
   -4.5120   -0.3670   -0.7500 H   0  0
   -4.3520   -1.7700   -1.7830 H   0  0
   -1.9980   -2.0270   -1.2230 H   0  0
   -2.2910   -0.3910   -1.7620 H   0  0
   -1.7560   -0.4120    3.3650 H   0  0
   -1.9140   -2.1430    3.5450 H   0  0
   -1.6660    1.4120    1.2830 H   0  0
   -3.3030    0.8890    1.1250 H   0  0
    0.4530   -1.4610    3.5740 H   0  0
    0.1230   -2.5330    2.2340 H   0  0
   -0.1740   -0.4490   -1.7930 H   0  0
    0.2700    0.5100    2.0940 H   0  0
    2.1510    0.2210   -1.7930 H   0  0
    2.2250   -1.3930   -1.1410 H   0  0
    2.1450   -1.7170    1.2680 H   0  0
   -0.3220    1.8180   -0.9510 H   0  0
   -4.6210    1.6170   -0.6760 H   0  0
    3.0000   -1.1210    3.3380 H   0  0
    2.3730    0.5000    3.2660 H   0  0
   -0.5170    3.0660   -3.0800 H   0  0
   -4.8160    2.8650   -2.8030 H   0  0
    2.4730    2.0590    1.4770 H   0  0
    1.0040    1.7480    0.5530 H   0  0
    2.4690    2.2730   -0.2710 H   0  0
    4.2560    1.2830    2.3220 H   0  0
    5.0160   -0.2620    2.5080 H   0  0
    5.6620    1.0350    0.2090 H   0  0
   -3.8220    3.9820   -4.6880 H   0  0
   -2.2910    3.2500   -5.1580 H   0  0
   -2.3050    4.7700   -4.2660 H   0  0
    6.5650   -3.7350   -0.2790 H   0  0
    5.5000   -3.7190   -1.6930 H   0  0
    4.9400   -4.4340   -0.1740 H   0  0
  1  2  2  0
  2  3  1  0
  2  4  1  0
  3  5  2  0
  4  6  1  0
  5  7  1  0
  5  8  1  0
  7  9  1  0
  7 10  1  0
  8 11  1  0
  9 12  2  0
  9 13  1  0
 10 14  1  0
 12 15  1  0
 13 16  1  0
 14 17  2  0
 14 18  1  0
 15 19  1  0
 16 20  1  0
 17 21  1  0
 18 22  2  0
 19 23  1  0
 19 24  1  0
 20 25  1  0
 21 26  2  0
 23 27  1  0
 23 28  1  0
 26 29  1  0
 28 30  3  0
 30 31  1  0
  6  7  1  0
 13 11  1  0
 16 19  1  0
 22 26  1  0
 23 25  1  0
  3 32  1  0
  4 33  1  0
  4 34  1  0
  6 35  1  0
  6 36  1  0
  8 37  1  0
  8 38  1  0
 10 39  1  0
 10 40  1  0
 11 41  1  0
 11 42  1  0
 12 43  1  0
 13 44  1  0
 15 45  1  0
 15 46  1  0
 16 47  1  0
 17 48  1  0
 18 49  1  0
 20 50  1  0
 20 51  1  0
 21 52  1  0
 22 53  1  0
 24 54  1  0
 24 55  1  0
 24 56  1  0
 25 57  1  0
 25 58  1  0
 27 59  1  0
 29 60  1  0
 29 61  1  0
 29 62  1  0
 31 63  1  0
 31 64  1  0
 31 65  1  0
M  END
> <Name>
CHEMBL363151

> <IC50 nM>
2.4

> <Molecule_ChEMBL_ID>
CHEMBL363151

> <Smiles>
CC#C[C@]1(O)CC[C@H]2[C@@H]3CCC4=CC(=O)CC[C@]4(Cc4ccc(C)cc4)C3=CC[C@@]21C

$$$$
CHEMBL185265
  SciTegic08162514323D

 88 91  0  0  0  0            999 V2000
    2.2710   -8.9690   -4.4470 S   0  0
    3.5630   -9.5330   -4.8050 O   0  0
    1.6070   -9.6920   -3.3770 O   0  0
    2.5290   -7.4550   -3.9300 N   0  0
    1.2170   -8.9810   -5.8930 C   0  0
    1.8050   -6.9590   -2.8770 C   0  0
    2.4340   -6.2760   -1.8070 C   0  0
    0.4080   -7.1370   -2.8690 C   0  0
    1.6500   -5.7770   -0.7380 C   0  0
    3.9160   -6.0820   -1.8090 C   0  0
   -0.3630   -6.6410   -1.8070 C   0  0
    2.2250   -5.1110    0.3140 N   0  0
    0.2540   -5.9630   -0.7440 C   0  0
    2.8140   -3.7770    0.1350 C   0  0
    2.2560   -5.7310    1.6480 C   0  0
    1.7790   -2.7580   -0.1740 C   0  0
    3.0450   -6.9900    1.6480 C   0  0
    0.9360   -2.9240   -1.2870 C   0  0
    1.6410   -1.6250    0.6460 C   0  0
    2.3870   -8.2350    1.6480 C   0  0
    4.4490   -6.9400    1.6480 C   0  0
   -0.0430   -1.9590   -1.5780 C   0  0
    0.6600   -0.6600    0.3540 C   0  0
    3.1330   -9.4240    1.6480 C   0  0
    5.1950   -8.1310    1.6480 C   0  0
   -0.1840   -0.8260   -0.7580 C   0  0
    4.5390   -9.3730    1.6480 C   0  0
   -1.1040    0.0780   -1.0330 O   0  0
   -0.7830    1.3500   -0.8910 C   0  0
   -1.7030    2.2520   -0.3280 C   0  0
    0.4800    1.8090   -1.3010 C   0  0
   -1.3650    3.6090   -0.1760 C   0  0
    0.8240    3.1620   -1.1480 C   0  0
   -2.2290    4.4510    0.3520 O   0  0
   -0.1000    4.0610   -0.5860 C   0  0
   -1.8400    5.8110    0.4860 C   0  0
   -2.9830    6.6090    1.1150 C   0  0
   -2.6390    8.0880    1.2950 C   0  0
   -3.7700    8.8690    1.9060 C   0  0
   -4.7870    8.3200    2.2560 O   0  0
   -3.6250   10.2190    2.0610 N   0  0
   -4.7210   10.9980    2.6540 C   0  0
   -4.3580   12.4830    2.7340 C   0  0
   -5.4730   13.3300    3.3480 C   0  0
   -5.1080   14.7870    3.4260 C   0  0
   -4.0490   15.1880    3.0020 O   0  0
   -6.0260   15.5710    3.9880 O   0  0
    3.2170   -6.8850   -4.3770 H   0  0
    1.3520   -9.8480   -6.5390 H   0  0
    1.4080   -8.0880   -6.4880 H   0  0
    0.1740   -8.9570   -5.5800 H   0  0
   -0.0900   -7.6560   -3.6760 H   0  0
    4.3790   -6.8170   -2.4690 H   0  0
    4.1480   -5.0570   -2.0880 H   0  0
    4.3050   -6.2500   -0.8030 H   0  0
   -1.4340   -6.7810   -1.8070 H   0  0
   -0.3590   -5.5900    0.0630 H   0  0
    3.5430   -3.8130   -0.6760 H   0  0
    3.3440   -3.4940    1.0450 H   0  0
    1.2340   -5.9420    1.9690 H   0  0
    2.6910   -5.0290    2.3590 H   0  0
    1.0370   -3.7930   -1.9220 H   0  0
    2.2830   -1.4900    1.5040 H   0  0
    1.3070   -8.2790    1.6480 H   0  0
    4.9610   -5.9880    1.6480 H   0  0
   -0.6880   -2.0920   -2.4340 H   0  0
    0.5570    0.2090    0.9860 H   0  0
    2.6270  -10.3790    1.6480 H   0  0
    6.2750   -8.0920    1.6480 H   0  0
    5.1110  -10.2890    1.6480 H   0  0
   -2.6740    1.9020   -0.0120 H   0  0
    1.1910    1.1190   -1.7320 H   0  0
    1.7950    3.5140   -1.4650 H   0  0
    0.1660    5.1020   -0.4710 H   0  0
   -1.6000    6.1950   -0.5060 H   0  0
   -0.9490    5.8500    1.1130 H   0  0
   -3.2850    6.1660    2.0630 H   0  0
   -3.8970    6.4940    0.5330 H   0  0
   -2.4200    8.4690    0.2970 H   0  0
   -1.7380    8.2030    1.9000 H   0  0
   -2.7790   10.6660    1.7680 H   0  0
   -4.9450   10.6040    3.6450 H   0  0
   -5.6250   10.8560    2.0640 H   0  0
   -4.0780   12.8630    1.7540 H   0  0
   -3.4240   12.6210    3.2790 H   0  0
   -5.6350   12.9340    4.3520 H   0  0
   -6.4010   13.2090    2.7890 H   0  0
   -5.8520   16.5180    4.0680 H   0  0
  1  2  2  0
  1  3  2  0
  1  4  1  0
  1  5  1  0
  4  6  1  0
  6  7  2  0
  6  8  1  0
  7  9  1  0
  7 10  1  0
  8 11  2  0
  9 12  1  0
  9 13  2  0
 12 14  1  0
 12 15  1  0
 14 16  1  0
 15 17  1  0
 16 18  2  0
 16 19  1  0
 17 20  2  0
 17 21  1  0
 18 22  1  0
 19 23  2  0
 20 24  1  0
 21 25  2  0
 22 26  2  0
 24 27  2  0
 26 28  1  0
 28 29  1  0
 29 30  2  0
 29 31  1  0
 30 32  1  0
 31 33  2  0
 32 34  1  0
 32 35  2  0
 34 36  1  0
 36 37  1  0
 37 38  1  0
 38 39  1  0
 39 40  2  0
 39 41  1  0
 41 42  1  0
 42 43  1  0
 43 44  1  0
 44 45  1  0
 45 46  2  0
 45 47  1  0
 11 13  1  0
 23 26  1  0
 25 27  1  0
 33 35  1  0
  4 48  1  0
  5 49  1  0
  5 50  1  0
  5 51  1  0
  8 52  1  0
 10 53  1  0
 10 54  1  0
 10 55  1  0
 11 56  1  0
 13 57  1  0
 14 58  1  0
 14 59  1  0
 15 60  1  0
 15 61  1  0
 18 62  1  0
 19 63  1  0
 20 64  1  0
 21 65  1  0
 22 66  1  0
 23 67  1  0
 24 68  1  0
 25 69  1  0
 27 70  1  0
 30 71  1  0
 31 72  1  0
 33 73  1  0
 35 74  1  0
 36 75  1  0
 36 76  1  0
 37 77  1  0
 37 78  1  0
 38 79  1  0
 38 80  1  0
 41 81  1  0
 42 82  1  0
 42 83  1  0
 43 84  1  0
 43 85  1  0
 44 86  1  0
 44 87  1  0
 47 88  1  0
M  END
> <Name>
CHEMBL185265

> <IC50 nM>
0.6

> <Molecule_ChEMBL_ID>
CHEMBL185265

> <Smiles>
Cc1c(NS(C)(=O)=O)cccc1N(Cc1ccccc1)Cc1ccc(Oc2cccc(OCCCC(=O)NCCCC(=O)O)c2)cc1

$$$$
CHEMBL222900
  SciTegic08162514323D

 66 70  0  0  1  0            999 V2000
   -6.1500   -2.4820    0.0390 O   0  0
   -4.9550   -2.3300   -0.0200 C   0  0
   -4.1210   -2.4390    1.1860 C   0  0
   -4.2600   -2.0220   -1.3200 C   0  0
   -2.8440   -2.0000    1.2250 C   0  0
   -3.0860   -1.0430   -1.1540 C   0  0
   -2.2110   -1.2990    0.0680 C   0  0
   -2.0430   -2.2210    2.4860 C   0  0
   -0.9160   -0.8830    0.1230 C   0  0
   -0.5630   -2.3950    2.1580 C   0  0
   -0.2660   -0.0550   -0.9920 C   0  0  1  0  0  0
   -0.0410   -1.2050    1.3360 C   0  0  1  0  0  0
   -0.5250    1.3980   -0.7790 C   0  0
    1.2380   -0.3520   -1.2070 C   0  0
    1.4160   -1.5080    0.9510 C   0  0  1  0  0  0
   -0.0350    2.3420   -1.6970 C   0  0
   -1.2580    1.8260    0.3420 C   0  0
    2.0430   -0.3890    0.1050 C   0  0  1  0  0  0
    2.4240   -1.6520    2.0980 C   0  0
   -0.2790    3.7130   -1.4980 C   0  0
   -1.5020    3.1950    0.5410 C   0  0
    3.5230   -0.8500    0.0490 C   0  0  2  0  0  0
    1.9550    0.9530    0.8550 C   0  0
    3.7830   -1.2380    1.5200 C   0  0
   -1.0140    4.1430   -0.3770 C   0  0
    0.2440    4.7030   -2.4790 C   0  0
    4.3830    0.2090   -0.3440 O   0  0
    3.7580   -1.9860   -0.8550 C   0  0
   -1.2480    5.4260   -0.1800 O   0  0
    3.9610   -2.9040   -1.5840 C   0  0
   -2.0680    5.7930    0.9200 C   0  0
    4.2070   -4.0270   -2.4840 C   0  0
   -4.5530   -2.8950    2.0630 H   0  0
   -4.9790   -1.6250   -2.0390 H   0  0
   -3.8950   -2.9590   -1.7380 H   0  0
   -2.5160   -1.1150   -2.0760 H   0  0
   -3.4670   -0.0250   -1.1000 H   0  0
   -2.1800   -1.3670    3.1480 H   0  0
   -2.4040   -3.1000    3.0230 H   0  0
    0.0040   -2.4980    3.0820 H   0  0
   -0.4220   -3.3240    1.6050 H   0  0
   -0.7170   -0.2830   -1.9510 H   0  0
   -0.0570   -0.3240    1.9840 H   0  0
    1.3110   -1.3180   -1.7070 H   0  0
    1.6820    0.3670   -1.8950 H   0  0
    1.4220   -2.4300    0.3830 H   0  0
    0.5290    2.0140   -2.5610 H   0  0
   -1.6370    1.1050    1.0530 H   0  0
    2.4380   -2.6620    2.4790 H   0  0
    2.1580   -1.0040    2.9200 H   0  0
   -2.0660    3.5200    1.4020 H   0  0
    0.9340    1.1840    1.1620 H   0  0
    2.3050    1.7700    0.2230 H   0  0
    2.5760    0.9360    1.7500 H   0  0
    4.1540   -0.3960    2.0880 H   0  0
    4.5240   -2.0220    1.6290 H   0  0
    0.0060    5.7380   -2.2400 H   0  0
   -0.1640    4.4860   -3.4650 H   0  0
    1.3280    4.6150   -2.5390 H   0  0
    4.0470    0.5530   -1.1860 H   0  0
   -2.1270    6.8810    0.9530 H   0  0
   -3.0180    5.2620    0.8300 H   0  0
   -1.5840    5.4550    1.8360 H   0  0
    5.2770   -4.2270   -2.5550 H   0  0
    3.8280   -3.8070   -3.4810 H   0  0
    3.7110   -4.9260   -2.1130 H   0  0
  1  2  2  0
  2  3  1  0
  2  4  1  0
  3  5  2  0
  4  6  1  0
  5  7  1  0
  5  8  1  0
  7  9  2  0
  8 10  1  0
  9 11  1  0
  9 12  1  0
 11 13  1  0
 11 14  1  0
 12 15  1  0
 13 16  2  0
 13 17  1  0
 14 18  1  0
 15 19  1  0
 16 20  1  0
 17 21  2  0
 18 22  1  0
 18 23  1  0
 19 24  1  0
 20 25  2  0
 20 26  1  0
 22 27  1  0
 22 28  1  0
 25 29  1  0
 28 30  3  0
 29 31  1  0
 30 32  1  0
  6  7  1  0
 12 10  1  0
 15 18  1  0
 21 25  1  0
 22 24  1  0
  3 33  1  0
  4 34  1  0
  4 35  1  0
  6 36  1  0
  6 37  1  0
  8 38  1  0
  8 39  1  0
 10 40  1  0
 10 41  1  0
 11 42  1  0
 12 43  1  0
 14 44  1  0
 14 45  1  0
 15 46  1  0
 16 47  1  0
 17 48  1  0
 19 49  1  0
 19 50  1  0
 21 51  1  0
 23 52  1  0
 23 53  1  0
 23 54  1  0
 24 55  1  0
 24 56  1  0
 26 57  1  0
 26 58  1  0
 26 59  1  0
 27 60  1  0
 31 61  1  0
 31 62  1  0
 31 63  1  0
 32 64  1  0
 32 65  1  0
 32 66  1  0
M  END
> <Name>
CHEMBL222900

> <IC50 nM>
1.1

> <Molecule_ChEMBL_ID>
CHEMBL222900

> <Smiles>
CC#C[C@]1(O)CC[C@H]2[C@@H]3CCC4=CC(=O)CCC4=C3[C@@H](c3ccc(OC)c(C)c3)C[C@@]21C

$$$$
CHEMBL396029
  SciTegic08162514323D

 40 42  0  0  1  0            999 V2000
    2.5450   -4.2770    1.9400 Cl  0  0
    1.6090   -3.1250    2.8010 C   0  0
    0.4710   -2.5370    2.2110 C   0  0
    1.9860   -2.7660    4.1090 C   0  0
    0.0040   -2.9770    0.6040 S   0  0
   -0.2850   -1.5900    2.9320 C   0  0
    1.2300   -1.8240    4.8280 C   0  0
   -1.4180   -2.7190    0.4550 O   0  0
    0.3570   -4.3690    0.3890 O   0  0
    0.7890   -2.0820   -0.6660 N   0  0
   -1.6720   -0.8590    2.2330 Cl  0  0
    0.0980   -1.2340    4.2380 C   0  0
    1.6910   -1.3930    6.4240 Cl  0  0
    0.6090   -0.6410   -0.6950 C   0  0  2  0  0  0
    0.7340   -0.1150   -2.1250 C   0  0
    1.5800    0.0410    0.2700 C   0  0
    0.3030    1.3360   -2.2170 C   0  0
   -0.9570    1.8260   -2.2540 C   0  0
    1.1480    2.4590   -2.2810 C   0  0
   -0.9820    3.1950   -2.3380 C   0  0
   -2.1540    1.0700   -2.2130 C   0  0
    0.3380    3.6190   -2.3570 N   0  0
   -2.1990    3.9140   -2.3870 C   0  0
   -3.3930    1.7640   -2.2600 C   0  0
   -3.4160    3.1820   -2.3480 C   0  0
    2.8570   -3.2150    4.5630 H   0  0
    1.7990   -2.2810   -0.6500 H   0  0
   -0.4800   -0.5100    4.7930 H   0  0
   -0.4160   -0.5490   -0.3380 H   0  0
    0.1350   -0.7150   -2.8110 H   0  0
    1.7580   -0.2130   -2.4840 H   0  0
    1.5080   -0.4000    1.2640 H   0  0
    2.6060   -0.0530   -0.0860 H   0  0
    1.3540    1.1030    0.3590 H   0  0
    2.2310    2.4790   -2.2770 H   0  0
   -2.1370   -0.0080   -2.1460 H   0  0
    0.6580    4.5590   -2.4120 H   0  0
   -2.2090    4.9920   -2.4530 H   0  0
   -4.3200    1.2110   -2.2300 H   0  0
   -4.3590    3.7030   -2.3830 H   0  0
  1  2  1  0
  2  3  2  0
  2  4  1  0
  3  5  1  0
  3  6  1  0
  4  7  2  0
  5  8  2  0
  5  9  2  0
  5 10  1  0
  6 11  1  0
  6 12  2  0
  7 13  1  0
 10 14  1  0
 14 15  1  0
 14 16  1  0
 15 17  1  0
 17 18  1  0
 17 19  2  0
 18 20  1  0
 18 21  2  0
 19 22  1  0
 20 23  2  0
 21 24  1  0
 23 25  1  0
  7 12  1  0
 20 22  1  0
 24 25  2  0
  4 26  1  0
 10 27  1  0
 12 28  1  0
 14 29  1  0
 15 30  1  0
 15 31  1  0
 16 32  1  0
 16 33  1  0
 16 34  1  0
 19 35  1  0
 21 36  1  0
 22 37  1  0
 23 38  1  0
 24 39  1  0
 25 40  1  0
M  END
> <Name>
CHEMBL396029

> <IC50 nM>
64

> <Molecule_ChEMBL_ID>
CHEMBL396029

> <Smiles>
CC(Cc1c[nH]c2ccccc12)NS(=O)(=O)c1c(Cl)cc(Cl)cc1Cl

$$$$
CHEMBL232248
  SciTegic08162514323D

 41 43  0  0  1  0            999 V2000
    4.3540   -2.8380    3.8300 Cl  0  0
    2.6900   -2.4820    3.5900 C   0  0
    2.0590   -2.7830    2.3650 C   0  0
    1.9530   -1.8850    4.6330 C   0  0
    2.7310   -3.3400    1.3770 O   0  0
    0.6940   -2.4840    2.1950 C   0  0
    0.5900   -1.5880    4.4550 C   0  0
   -0.0920   -2.8520    0.7030 S   0  0
   -0.0410   -1.8910    3.2340 C   0  0
   -0.3050   -0.8590    5.7250 Cl  0  0
   -1.4980   -2.5100    0.8300 O   0  0
    0.1310   -4.2540    0.4000 O   0  0
    0.4940   -1.9650   -0.6760 N   0  0
    0.2830   -0.5270   -0.7030 C   0  0  2  0  0  0
    0.4490    0.0100   -2.1250 C   0  0
    1.1990    0.1680    0.3030 C   0  0
    0.0200    1.4610   -2.2170 C   0  0
   -1.2400    1.9510   -2.2520 C   0  0
    0.8650    2.5860   -2.2810 C   0  0
   -1.2650    3.3200   -2.3360 C   0  0
   -2.4390    1.1970   -2.2110 C   0  0
    0.0530    3.7440   -2.3550 N   0  0
   -2.4840    4.0390   -2.3870 C   0  0
   -3.6760    1.8890   -2.2600 C   0  0
   -3.6990    3.3090   -2.3460 C   0  0
    2.4380   -1.6540    5.5720 H   0  0
    2.2720   -3.5530    0.5530 H   0  0
   -1.0880   -1.6680    3.0880 H   0  0
    1.5020   -2.1450   -0.7970 H   0  0
   -0.7580   -0.4630   -0.3870 H   0  0
   -0.1270   -0.5840   -2.8320 H   0  0
    1.4850   -0.0820   -2.4530 H   0  0
    0.9750   -0.1560    1.3180 H   0  0
    2.2460   -0.0490    0.0840 H   0  0
    1.0670    1.2480    0.2620 H   0  0
    1.9470    2.6040   -2.2770 H   0  0
   -2.4220    0.1170   -2.1460 H   0  0
    0.3750    4.6840   -2.4120 H   0  0
   -2.4920    5.1170   -2.4530 H   0  0
   -4.6030    1.3360   -2.2300 H   0  0
   -4.6440    3.8300   -2.3830 H   0  0
  1  2  1  0
  2  3  2  0
  2  4  1  0
  3  5  1  0
  3  6  1  0
  4  7  2  0
  6  8  1  0
  6  9  2  0
  7 10  1  0
  8 11  2  0
  8 12  2  0
  8 13  1  0
 13 14  1  0
 14 15  1  0
 14 16  1  0
 15 17  1  0
 17 18  1  0
 17 19  2  0
 18 20  1  0
 18 21  2  0
 19 22  1  0
 20 23  2  0
 21 24  1  0
 23 25  1  0
  7  9  1  0
 20 22  1  0
 24 25  2  0
  4 26  1  0
  5 27  1  0
  9 28  1  0
 13 29  1  0
 14 30  1  0
 15 31  1  0
 15 32  1  0
 16 33  1  0
 16 34  1  0
 16 35  1  0
 19 36  1  0
 21 37  1  0
 22 38  1  0
 23 39  1  0
 24 40  1  0
 25 41  1  0
M  END
> <Name>
CHEMBL232248

> <IC50 nM>
10000

> <Molecule_ChEMBL_ID>
CHEMBL232248

> <Smiles>
CC(Cc1c[nH]c2ccccc12)NS(=O)(=O)c1cc(Cl)cc(Cl)c1O

$$$$
CHEMBL216272
  SciTegic08162514323D

 57 60  0  0  1  0            999 V2000
    0.4920    0.9140    3.7190 F   0  0
    1.5250    0.9940    2.8200 C   0  0
    2.1700    2.1950    2.9710 F   0  0
    2.4080   -0.0290    3.0470 F   0  0
    0.9750    0.8870    1.3980 C   0  0  2  0  0  0
    0.1310    1.9920    1.1660 O   0  0
    0.1600   -0.3790    1.3730 C   0  0
    2.0740    0.8930    0.3360 C   0  0
   -1.0490   -0.3420    1.3480 O   0  0
    0.8120   -1.5780    1.3790 N   0  0
    1.5190    0.9650   -1.0860 C   0  0
    0.1130   -2.7230    1.3550 C   0  0
    1.4390    2.4340   -1.0980 C   0  0
    2.5100    0.4470   -2.1310 C   0  0
    0.1370    0.3260   -1.2150 C   0  0
   -1.0410   -2.8420    0.5350 C   0  0
    0.5190   -3.8260    2.1520 C   0  0
    0.1680    3.0590   -1.2110 C   0  0
    2.6290    3.1910   -0.9960 C   0  0
   -1.7770   -4.0530    0.5170 C   0  0
   -0.2150   -5.0370    2.1350 C   0  0
   -1.0390    2.5040   -1.3130 O   0  0
    0.1130    4.4610   -1.2250 C   0  0
    2.5590    4.5980   -1.0060 C   0  0
   -1.3610   -5.1410    1.3120 C   0  0
   -2.9940   -4.2170   -0.3300 C   0  0
   -2.0610    3.5140   -1.3970 C   0  0
    1.3030    5.2270   -1.1210 C   0  0
   -1.3260    4.8890   -1.3590 C   0  0
   -2.1760   -6.3870    1.2500 C   0  0
   -3.6450   -5.3320   -0.3240 N   0  0
   -3.4960   -3.0960   -1.2050 C   0  0
   -1.8970   -7.3710    1.8940 O   0  0
   -3.2770   -6.5040    0.4710 O   0  0
   -0.5240    2.0080    1.8830 H   0  0
    2.7270    0.0290    0.4530 H   0  0
    2.7790    1.7050    0.5170 H   0  0
    1.8100   -1.6090    1.3980 H   0  0
    2.6150   -0.6370   -2.0880 H   0  0
    3.4960    0.8850   -1.9790 H   0  0
    2.1800    0.7090   -3.1370 H   0  0
   -0.5700    0.7400   -0.4980 H   0  0
    0.1930   -0.7500   -1.0450 H   0  0
   -0.2700    0.4840   -2.2130 H   0  0
   -1.3590   -2.0080   -0.0760 H   0  0
    1.3920   -3.7580    2.7850 H   0  0
    3.5880    2.6990   -0.9100 H   0  0
    0.1050   -5.8670    2.7460 H   0  0
    3.4590    5.1880   -0.9260 H   0  0
   -2.7350    3.3970   -0.5590 H   0  0
   -2.6170    3.3750   -2.3110 H   0  0
    1.2440    6.3050   -1.1290 H   0  0
   -1.4730    5.4490   -2.2720 H   0  0
   -1.6310    5.4900   -0.5160 H   0  0
   -4.3810   -3.4200   -1.7500 H   0  0
   -3.6970   -2.2150   -0.5980 H   0  0
   -2.7330   -2.8300   -1.9380 H   0  0
  1  2  1  0
  2  3  1  0
  2  4  1  0
  2  5  1  0
  5  6  1  0
  5  7  1  0
  5  8  1  0
  7  9  2  0
  7 10  1  0
  8 11  1  0
 10 12  1  0
 11 13  1  0
 11 14  1  0
 11 15  1  0
 12 16  2  0
 12 17  1  0
 13 18  2  0
 13 19  1  0
 16 20  1  0
 17 21  2  0
 18 22  1  0
 18 23  1  0
 19 24  2  0
 20 25  2  0
 20 26  1  0
 22 27  1  0
 23 28  2  0
 23 29  1  0
 25 30  1  0
 26 31  2  0
 26 32  1  0
 30 33  2  0
 30 34  1  0
 21 25  1  0
 24 28  1  0
 27 29  1  0
 31 34  1  0
  6 35  1  0
  8 36  1  0
  8 37  1  0
 10 38  1  0
 14 39  1  0
 14 40  1  0
 14 41  1  0
 15 42  1  0
 15 43  1  0
 15 44  1  0
 16 45  1  0
 17 46  1  0
 19 47  1  0
 21 48  1  0
 24 49  1  0
 27 50  1  0
 27 51  1  0
 28 52  1  0
 29 53  1  0
 29 54  1  0
 32 55  1  0
 32 56  1  0
 32 57  1  0
M  END
> <Name>
CHEMBL216272

> <IC50 nM>
19.95

> <Molecule_ChEMBL_ID>
CHEMBL216272

> <Smiles>
Cc1noc(=O)c2ccc(NC(=O)C(O)(CC(C)(C)c3cccc4c3OCC4)C(F)(F)F)cc12

$$$$
CHEMBL1257221
  SciTegic08162514323D

 57 59  0  0  1  0            999 V2000
   -5.1580   -1.1020   -3.8090 F   0  0
   -5.0020   -0.6660   -2.5610 C   0  0
   -3.7560   -0.1660   -2.1430 C   0  0
   -6.0800   -0.7050   -1.6620 C   0  0
   -3.5900    0.2950   -0.8240 C   0  0
   -5.9140   -0.2440   -0.3460 C   0  0
   -4.6720    0.2560    0.0800 C   0  0
   -2.2680    0.8220   -0.3910 C   0  0
   -4.5280    0.6850    1.3160 O   0  0
   -1.8650   -0.4650    0.3320 C   0  0
   -2.4200    2.0100    0.5610 C   0  0
   -1.3670    1.1350   -1.5860 C   0  0
   -5.6920    0.8100    2.1190 C   0  0
   -0.4100   -0.4470    0.7990 C   0  0  1  0  0  0
   -0.1430    0.8140    1.3670 O   0  0
   -0.2930   -1.5040    1.8980 C   0  0
    0.5800   -0.6740   -0.3460 C   0  0
   -1.3300   -1.3590    2.7830 F   0  0
    0.8980   -1.3440    2.5610 F   0  0
   -0.3400   -2.7540    1.3380 F   0  0
    1.8530   -1.2110    0.1580 N   0  0
    2.9690   -0.4730    0.0780 C   0  0
    4.2420   -1.1000    0.0390 C   0  0
    2.8890    0.9450    0.0310 C   0  0
    5.4200   -0.3150   -0.0430 C   0  0
    4.0620    1.7300   -0.0550 C   0  0
    5.3240    1.0920   -0.0900 C   0  0
    6.7750   -0.9360   -0.0840 C   0  0
    6.5980    1.8610   -0.1780 C   0  0
    7.8280   -0.1930   -0.1580 N   0  0
    6.9510   -2.4320   -0.0370 C   0  0
    6.6130    3.0700   -0.2250 O   0  0
    7.8120    1.2680   -0.2110 O   0  0
   -2.9280   -0.1370   -2.8340 H   0  0
   -7.0390   -1.0880   -1.9810 H   0  0
   -6.7460   -0.2750    0.3440 H   0  0
   -2.0590   -1.3340   -0.2950 H   0  0
   -2.5350   -0.6640    1.1680 H   0  0
   -3.3320    2.5720    0.3650 H   0  0
   -1.5780    2.6950    0.4590 H   0  0
   -2.4510    1.6720    1.5960 H   0  0
   -1.8930    1.7090   -2.3500 H   0  0
   -1.0080    0.2150   -2.0490 H   0  0
   -0.4980    1.7130   -1.2730 H   0  0
   -5.3970    1.2050    3.0920 H   0  0
   -6.4260    1.3960    1.5660 H   0  0
   -6.1080   -0.1840    2.2750 H   0  0
    0.0170    1.4300    0.6370 H   0  0
    0.7690    0.2560   -0.8810 H   0  0
    0.1660   -1.3630   -1.0820 H   0  0
    1.8870   -2.1250    0.5590 H   0  0
    4.3160   -2.1780    0.0740 H   0  0
    1.9300    1.4450    0.0590 H   0  0
    3.9860    2.8090   -0.0900 H   0  0
    7.9940   -2.7500   -0.0660 H   0  0
    6.4390   -2.8930   -0.8830 H   0  0
    6.5080   -2.8300    0.8770 H   0  0
  1  2  1  0
  2  3  2  0
  2  4  1  0
  3  5  1  0
  4  6  2  0
  5  7  2  0
  5  8  1  0
  7  9  1  0
  8 10  1  0
  8 11  1  0
  8 12  1  0
  9 13  1  0
 10 14  1  0
 14 15  1  0
 14 16  1  0
 14 17  1  0
 16 18  1  0
 16 19  1  0
 16 20  1  0
 17 21  1  0
 21 22  1  0
 22 23  2  0
 22 24  1  0
 23 25  1  0
 24 26  2  0
 25 27  2  0
 25 28  1  0
 27 29  1  0
 28 30  2  0
 28 31  1  0
 29 32  2  0
 29 33  1  0
  6  7  1  0
 26 27  1  0
 30 33  1  0
  3 34  1  0
  4 35  1  0
  6 36  1  0
 10 37  1  0
 10 38  1  0
 11 39  1  0
 11 40  1  0
 11 41  1  0
 12 42  1  0
 12 43  1  0
 12 44  1  0
 13 45  1  0
 13 46  1  0
 13 47  1  0
 15 48  1  0
 17 49  1  0
 17 50  1  0
 21 51  1  0
 23 52  1  0
 24 53  1  0
 26 54  1  0
 31 55  1  0
 31 56  1  0
 31 57  1  0
M  END
> <Name>
CHEMBL1257221

> <IC50 nM>
10

> <Molecule_ChEMBL_ID>
CHEMBL1257221

> <Smiles>
COc1ccc(F)cc1C(C)(C)CC(O)(CNc1ccc2c(=O)onc(C)c2c1)C(F)(F)F

$$$$
CHEMBL1257572
  SciTegic08162514323D

 55 57  0  0  1  0            999 V2000
   -0.0290   -2.7170    5.0570 F   0  0
   -0.9840   -2.4810    4.1620 C   0  0
   -0.7830   -1.5250    3.1500 C   0  0
   -2.1970   -3.1880    4.2270 C   0  0
   -1.7930   -1.2750    2.2030 C   0  0
   -3.2070   -2.9380    3.2810 C   0  0
   -3.0100   -1.9820    2.2680 C   0  0
   -1.5670   -0.2620    1.1390 C   0  0
   -3.9630   -1.7560    1.3870 O   0  0
   -1.5920   -1.2850    0.0020 C   0  0
   -0.2070    0.4200    1.2890 C   0  0
   -2.7230    0.7360    1.0590 C   0  0
   -0.2320   -1.9450   -0.2290 C   0  0  1  0  0  0
    0.3100   -2.2890    1.0270 O   0  0
   -0.3280   -3.2150   -1.0720 C   0  0
    0.7580   -1.0210   -0.9390 C   0  0
   -1.1410   -4.1230   -0.4430 F   0  0
    0.9240   -3.7540   -1.2300 F   0  0
   -0.8520   -2.9080   -2.3010 F   0  0
    0.0780   -0.2010   -1.9510 N   0  0
    0.2560    1.1350   -1.9650 C   0  0
    1.5510    1.7480   -1.9800 C   0  0
   -0.8950    1.9630   -1.9670 C   0  0
    1.6680    3.1800   -1.9940 C   0  0
    2.7520    0.9750   -1.9800 C   0  0
   -0.7770    3.3690   -1.9800 C   0  0
    2.9080    3.7910   -2.0060 N   0  0
    0.4960    3.9750   -1.9940 C   0  0
    4.0120    1.6230   -1.9940 C   0  0
    4.0620    3.0370   -2.0060 C   0  0
    5.3650    3.7190   -2.0200 C   0  0
    0.1520   -0.9820    3.1020 H   0  0
   -2.3580   -3.9220    5.0000 H   0  0
   -4.1390   -3.4820    3.3340 H   0  0
   -4.7910   -2.2520    1.4470 H   0  0
   -2.3590   -2.0390    0.1800 H   0  0
   -1.9610   -0.8320   -0.9160 H   0  0
    0.5900   -0.3010    1.4730 H   0  0
   -0.2190    1.1230    2.1210 H   0  0
    0.0470    0.9750    0.3870 H   0  0
   -3.6060    0.2990    0.5960 H   0  0
   -2.4360    1.6090    0.4730 H   0  0
   -3.0040    1.0800    2.0530 H   0  0
    1.2050   -2.6290    0.8690 H   0  0
    1.2580   -0.3670   -0.2250 H   0  0
    1.5490   -1.6000   -1.4180 H   0  0
   -0.5180   -0.6210   -2.6350 H   0  0
   -1.8890    1.5330   -1.9570 H   0  0
    2.7320   -0.1050   -1.9710 H   0  0
   -1.6660    3.9820   -1.9800 H   0  0
    0.5590    5.0550   -2.0040 H   0  0
    4.9200    1.0390   -1.9960 H   0  0
    5.2110    4.7970   -2.0020 H   0  0
    5.9690    3.3630   -1.1860 H   0  0
    5.8950    3.4730   -2.9410 H   0  0
  1  2  1  0
  2  3  2  0
  2  4  1  0
  3  5  1  0
  4  6  2  0
  5  7  2  0
  5  8  1  0
  7  9  1  0
  8 10  1  0
  8 11  1  0
  8 12  1  0
 10 13  1  0
 13 14  1  0
 13 15  1  0
 13 16  1  0
 15 17  1  0
 15 18  1  0
 15 19  1  0
 16 20  1  0
 20 21  1  0
 21 22  2  0
 21 23  1  0
 22 24  1  0
 22 25  1  0
 23 26  2  0
 24 27  1  0
 24 28  2  0
 25 29  2  0
 27 30  2  0
 30 31  1  0
  6  7  1  0
 26 28  1  0
 29 30  1  0
  3 32  1  0
  4 33  1  0
  6 34  1  0
  9 35  1  0
 10 36  1  0
 10 37  1  0
 11 38  1  0
 11 39  1  0
 11 40  1  0
 12 41  1  0
 12 42  1  0
 12 43  1  0
 14 44  1  0
 16 45  1  0
 16 46  1  0
 20 47  1  0
 23 48  1  0
 25 49  1  0
 26 50  1  0
 28 51  1  0
 29 52  1  0
 31 53  1  0
 31 54  1  0
 31 55  1  0
M  END
> <Name>
CHEMBL1257572

> <IC50 nM>
6.31

> <Molecule_ChEMBL_ID>
CHEMBL1257572

> <Smiles>
Cc1ccc2c(NCC(O)(CC(C)(C)c3cc(F)ccc3O)C(F)(F)F)cccc2n1

$$$$
CHEMBL196374
  SciTegic08162514323D

 53 55  0  0  1  0            999 V2000
    1.7420   -4.2970    0.7850 F   0  0
    0.4470   -4.0120    0.9020 C   0  0
    0.0370   -2.6880    1.1370 C   0  0
   -0.5100   -5.0330    0.7930 C   0  0
   -1.3320   -2.3850    1.2620 C   0  0
   -1.8770   -4.7320    0.9180 C   0  0
   -2.2930   -3.4100    1.1520 C   0  0
   -1.7540   -0.9820    1.5100 C   0  0
   -3.5780   -3.1390    1.2680 O   0  0
   -2.1820   -0.7360    0.0620 C   0  0
   -0.5760   -0.1050    1.9340 C   0  0
   -2.9260   -0.9120    2.4900 C   0  0
   -2.4980    0.7340   -0.2170 C   0  0  1  0  0  0
   -3.3380    1.2090    0.8110 O   0  0
   -1.2580    1.5860   -0.2850 C   0  0
   -3.2110    0.9400   -1.5530 C   0  0
   -1.1620    2.5960    0.3710 O   0  0
   -0.2360    1.1930   -1.1040 N   0  0
   -2.4860    0.3480   -2.5550 F   0  0
   -3.3300    2.2810   -1.8070 F   0  0
   -4.4590    0.3730   -1.4960 F   0  0
    0.8790    1.9320   -1.1820 C   0  0
    2.1530    1.3030   -1.2210 C   0  0
    0.7990    3.3500   -1.2310 C   0  0
    3.3300    2.0900   -1.3030 C   0  0
    1.9730    4.1350   -1.3150 C   0  0
    3.2370    3.4960   -1.3500 C   0  0
    4.6860    1.4690   -1.3440 C   0  0
    4.5080    4.2660   -1.4380 C   0  0
    5.7390    2.2110   -1.4180 N   0  0
    4.8620   -0.0290   -1.2970 C   0  0
    4.5240    5.4750   -1.4860 O   0  0
    5.7230    3.6720   -1.4710 O   0  0
    0.7740   -1.9020    1.2210 H   0  0
   -0.1990   -6.0530    0.6130 H   0  0
   -2.6090   -5.5220    0.8340 H   0  0
   -4.2210   -3.8550    1.1890 H   0  0
   -1.4260   -1.1050   -0.6310 H   0  0
   -3.0290   -1.3690   -0.2030 H   0  0
    0.1560    0.0060    1.1350 H   0  0
   -0.0660   -0.5350    2.7970 H   0  0
   -0.9180    0.8930    2.2130 H   0  0
   -3.8870   -0.9800    1.9820 H   0  0
   -2.9080    0.0270    3.0450 H   0  0
   -2.8710   -1.7250    3.2150 H   0  0
   -2.7660    1.4790    1.5450 H   0  0
   -0.3180    0.3560   -1.6450 H   0  0
    2.2270    0.2250   -1.1860 H   0  0
   -0.1600    3.8480   -1.2010 H   0  0
    1.8970    5.2110   -1.3500 H   0  0
    5.9200   -0.2810   -1.3830 H   0  0
    4.4280   -0.4240   -0.3790 H   0  0
    4.3420   -0.4880   -2.1370 H   0  0
  1  2  1  0
  2  3  2  0
  2  4  1  0
  3  5  1  0
  4  6  2  0
  5  7  2  0
  5  8  1  0
  7  9  1  0
  8 10  1  0
  8 11  1  0
  8 12  1  0
 10 13  1  0
 13 14  1  0
 13 15  1  0
 13 16  1  0
 15 17  2  0
 15 18  1  0
 16 19  1  0
 16 20  1  0
 16 21  1  0
 18 22  1  0
 22 23  2  0
 22 24  1  0
 23 25  1  0
 24 26  2  0
 25 27  2  0
 25 28  1  0
 27 29  1  0
 28 30  2  0
 28 31  1  0
 29 32  2  0
 29 33  1  0
  6  7  1  0
 26 27  1  0
 30 33  1  0
  3 34  1  0
  4 35  1  0
  6 36  1  0
  9 37  1  0
 10 38  1  0
 10 39  1  0
 11 40  1  0
 11 41  1  0
 11 42  1  0
 12 43  1  0
 12 44  1  0
 12 45  1  0
 14 46  1  0
 18 47  1  0
 23 48  1  0
 24 49  1  0
 26 50  1  0
 31 51  1  0
 31 52  1  0
 31 53  1  0
M  END
> <Name>
CHEMBL196374

> <IC50 nM>
50.12

> <Molecule_ChEMBL_ID>
CHEMBL196374

> <Smiles>
Cc1noc(=O)c2ccc(NC(=O)C(O)(CC(C)(C)c3cc(F)ccc3O)C(F)(F)F)cc12

$$$$
CHEMBL5265836
  SciTegic08162514323D

 81 86  0  0  0  0            999 V2000
   -0.4670   -3.0310    0.1890 S   0  0
   -1.0530   -1.8090   -0.8380 C   0  0
   -1.4000   -4.2150   -0.5660 C   0  0
   -1.9510   -2.3010   -1.7480 N   0  0
   -0.6410   -0.3890   -0.7580 C   0  0
   -2.1520   -3.6500   -1.6020 C   0  0
   -0.5470    0.2560    0.4920 C   0  0
   -0.3460    0.3160   -1.9380 C   0  0
   -3.1090   -4.3890   -2.5120 C   0  0
   -0.8200   -0.3970    1.6040 O   0  0
   -0.1540    1.6050    0.5530 C   0  0
    0.0450    1.6640   -1.8750 C   0  0
   -2.5250   -4.5530   -3.9160 C   0  0
   -0.5660    0.2540    2.8400 C   0  0
    0.1430    2.3120   -0.6290 C   0  0
   -1.3050   -5.3750   -3.9000 C   0  0
   -0.8670   -0.7030    3.9920 C   0  0
    0.5210    3.6150   -0.5640 N   0  0
   -0.0330   -4.7540   -3.9340 C   0  0
   -1.4040   -6.7870   -3.8520 C   0  0
   -2.2970   -0.9430    4.1540 N   0  0
    1.3120    4.2190   -1.4650 N   0  0
    0.1520    4.4900    0.4160 C   0  0
    1.1410   -5.5470   -3.9200 C   0  0
   -0.2380   -7.5860   -3.8400 C   0  0
   -3.0570   -1.8520    3.4200 C   0  0
   -3.1250   -0.2440    5.1290 C   0  0
    1.4690    5.4900   -1.0840 N   0  3
    0.7600    5.7270    0.1000 C   0  0
    1.0390   -6.9710   -3.8730 C   0  0
    2.4180   -4.9300   -3.9490 C   0  0
   -2.6270   -2.5660    2.5450 O   0  0
   -4.3890   -1.8200    3.8380 N   0  0
   -4.5270   -0.8360    4.9140 C   0  0
    2.2850    6.4430   -1.8520 C   0  0
    0.7010    7.0510    0.8320 C   0  0
    2.2150   -7.7640   -3.8630 C   0  0
    3.5860   -5.7290   -3.9390 C   0  0
    1.9840    7.3030    1.6250 C   0  0
    3.4840   -7.1410   -3.8970 C   0  0
    2.2560    6.2190    2.6680 C   0  0
    3.3180    6.6330    3.6860 C   0  0
    4.6310    6.6780    3.0630 N   0  0
   -1.4080   -5.2600   -0.2810 H   0  0
   -0.4180   -0.1740   -2.8970 H   0  0
   -4.0590   -3.8540   -2.5510 H   0  0
   -3.3500   -5.3600   -2.0780 H   0  0
   -0.0840    2.0880    1.5180 H   0  0
    0.2690    2.1890   -2.7930 H   0  0
   -2.3030   -3.5820   -4.3570 H   0  0
   -3.2560   -5.0000   -4.5880 H   0  0
   -1.2030    1.1390    2.8970 H   0  0
    0.4800    0.5610    2.8560 H   0  0
   -0.4550   -0.3220    4.9280 H   0  0
   -0.3540   -1.6540    3.8480 H   0  0
    0.0290   -3.6740   -3.9690 H   0  0
   -2.3750   -7.2620   -3.8260 H   0  0
   -0.4840    4.2580    1.2620 H   0  0
   -0.3360   -8.6620   -3.8030 H   0  0
   -2.7600   -0.4300    6.1290 H   0  0
   -3.1020    0.8200    4.9430 H   0  0
    2.5160   -3.8540   -3.9820 H   0  0
   -5.1270   -2.3810    3.4630 H   0  0
   -4.8970   -1.3180    5.8090 H   0  0
   -5.2380   -0.0740    4.6250 H   0  0
    1.8070    6.6430   -2.8110 H   0  0
    2.4410    7.3460   -1.2620 H   0  0
    3.2640    6.0040   -2.0530 H   0  0
   -0.1680    7.0630    1.4900 H   0  0
    0.5250    7.8540    0.1170 H   0  0
    2.1580   -8.8420   -3.8300 H   0  0
    4.5570   -5.2600   -3.9630 H   0  0
    1.9610    8.2890    2.0900 H   0  0
    2.8360    7.4140    0.9530 H   0  0
    4.3810   -7.7420   -3.8890 H   0  0
    2.5290    5.2790    2.1860 H   0  0
    1.3340    5.9280    3.1700 H   0  0
    3.3400    5.9380    4.5250 H   0  0
    3.0840    7.6090    4.1110 H   0  0
    4.6720    7.5120    2.4610 H   0  0
    5.3360    6.7790    3.8050 H   0  0
  1  2  1  0
  1  3  1  0
  2  4  2  0
  2  5  1  0
  3  6  2  0
  5  7  2  0
  5  8  1  0
  6  9  1  0
  7 10  1  0
  7 11  1  0
  8 12  2  0
  9 13  1  0
 10 14  1  0
 11 15  2  0
 13 16  1  0
 14 17  1  0
 15 18  1  0
 16 19  2  0
 16 20  1  0
 17 21  1  0
 18 22  1  0
 18 23  1  0
 19 24  1  0
 20 25  2  0
 21 26  1  0
 21 27  1  0
 22 28  2  0
 23 29  2  0
 24 30  1  0
 24 31  2  0
 26 32  2  0
 26 33  1  0
 27 34  1  0
 28 35  1  0
 29 36  1  0
 30 37  2  0
 31 38  1  0
 36 39  1  0
 37 40  1  0
 39 41  1  0
 41 42  1  0
 42 43  1  0
  4  6  1  0
 12 15  1  0
 25 30  1  0
 28 29  1  0
 33 34  1  0
 38 40  2  0
  3 44  1  0
  8 45  1  0
  9 46  1  0
  9 47  1  0
 11 48  1  0
 12 49  1  0
 13 50  1  0
 13 51  1  0
 14 52  1  0
 14 53  1  0
 17 54  1  0
 17 55  1  0
 19 56  1  0
 20 57  1  0
 23 58  1  0
 25 59  1  0
 27 60  1  0
 27 61  1  0
 31 62  1  0
 33 63  1  0
 34 64  1  0
 34 65  1  0
 35 66  1  0
 35 67  1  0
 35 68  1  0
 36 69  1  0
 36 70  1  0
 37 71  1  0
 38 72  1  0
 39 73  1  0
 39 74  1  0
 40 75  1  0
 41 76  1  0
 41 77  1  0
 42 78  1  0
 42 79  1  0
 43 80  1  0
 43 81  1  0
M  CHG  1  28   1
M  END
> <Name>
CHEMBL5265836

> <IC50 nM>
75000

> <Molecule_ChEMBL_ID>
CHEMBL5265836

> <Smiles>
C[n+]1nn(-c2ccc(-c3nc(CCc4ccc5ccccc5c4)cs3)c(OCCN3CCNC3=O)c2)cc1CCCCN.O=C(O)C(F)(F)F.O=S(=O)([O-])C(F)(F)F

$$$$
CHEMBL244535
  SciTegic08162514323D

 58 62  0  0  0  0            999 V2000
    2.6950   -1.2560   -2.8650 S   0  0
    1.5310   -0.0200   -2.7870 C   0  0
    3.2540   -0.7660   -4.3910 C   0  0
    1.5610    0.7870   -3.9410 C   0  0
    0.6270    0.1600   -1.6560 C   0  0
    2.5470    0.3530   -4.8540 C   0  0
    0.6840    1.9280   -4.1740 C   0  0
    0.8970   -0.3480   -0.4300 C   0  0
   -0.0120    2.3500   -3.2810 O   0  0
    0.6640    2.5640   -5.5390 C   0  0
    2.1000   -0.9120   -0.2930 O   0  0
   -0.0580   -0.2130    0.7190 C   0  0
    2.6310   -1.1490    0.9260 C   0  0
   -1.4730    0.0040    0.5840 C   0  0
    0.5270   -0.2970    2.0200 C   0  0
    1.9200   -0.8440    2.1390 C   0  0
    3.9300   -1.7010    0.9730 C   0  0
   -2.1890    0.5410    1.6930 C   0  0
   -2.2520   -0.3480   -0.6520 C   0  0
   -0.2400    0.1500    3.1310 C   0  0
    2.5820   -1.0940    3.3870 C   0  0
    4.5610   -1.9420    2.2090 C   0  0
   -3.4670    0.9780    1.5510 N   0  0
   -1.5640    0.6030    2.9610 C   0  0
   -3.4940    0.1560   -0.8160 C   0  0
   -1.7380   -1.2930   -1.7130 C   0  0
    2.0120   -0.8540    4.5760 O   0  0
    3.8930   -1.6310    3.4100 C   0  0
   -4.1330    1.0620    0.2210 C   0  0
    2.0530   -1.8810    5.5550 C   0  0
    4.5060   -1.8540    4.5820 O   0  0
   -4.0550    2.5080   -0.2790 C   0  0
   -5.6020    0.6560    0.3770 C   0  0
    4.0530   -1.2620   -4.9260 H   0  0
   -0.2670    0.7320   -1.8380 H   0  0
    2.7420    0.8300   -5.8050 H   0  0
   -0.0350    3.3950   -5.6210 H   0  0
    0.3910    1.8220   -6.2890 H   0  0
    1.6580    2.9370   -5.7870 H   0  0
    4.4470   -1.9420    0.0570 H   0  0
    0.1290    0.1800    4.1410 H   0  0
    5.5550   -2.3610    2.2340 H   0  0
   -3.9880    1.2750    2.3540 H   0  0
   -2.0940    0.9920    3.8200 H   0  0
   -4.0550   -0.0920   -1.7050 H   0  0
   -0.8420   -1.8340   -1.4140 H   0  0
   -1.5080   -0.7400   -2.6230 H   0  0
   -2.5060   -2.0270   -1.9570 H   0  0
    2.0080   -2.8420    5.0410 H   0  0
    2.9240   -1.7150    6.1880 H   0  0
    1.1640   -1.7950    6.1780 H   0  0
    5.3830   -2.2580    4.5860 H   0  0
   -3.0230    2.8380   -0.4040 H   0  0
   -4.5390    3.1860    0.4260 H   0  0
   -4.5570    2.6110   -1.2400 H   0  0
   -5.7030   -0.3690    0.7320 H   0  0
   -6.1270    0.7300   -0.5760 H   0  0
   -6.1090    1.3070    1.0880 H   0  0
  1  2  1  0
  1  3  1  0
  2  4  2  0
  2  5  1  0
  3  6  2  0
  4  7  1  0
  5  8  2  0
  7  9  2  0
  7 10  1  0
  8 11  1  0
  8 12  1  0
 11 13  1  0
 12 14  2  0
 12 15  1  0
 13 16  2  0
 13 17  1  0
 14 18  1  0
 14 19  1  0
 15 20  2  0
 16 21  1  0
 17 22  2  0
 18 23  1  0
 18 24  2  0
 19 25  2  0
 19 26  1  0
 21 27  1  0
 21 28  2  0
 23 29  1  0
 27 30  1  0
 28 31  1  0
 29 32  1  0
 29 33  1  0
  4  6  1  0
 15 16  1  0
 20 24  1  0
 22 28  1  0
 25 29  1  0
  3 34  1  0
  5 35  1  0
  6 36  1  0
 10 37  1  0
 10 38  1  0
 10 39  1  0
 17 40  1  0
 20 41  1  0
 22 42  1  0
 23 43  1  0
 24 44  1  0
 25 45  1  0
 26 46  1  0
 26 47  1  0
 26 48  1  0
 30 49  1  0
 30 50  1  0
 30 51  1  0
 31 52  1  0
 32 53  1  0
 32 54  1  0
 32 55  1  0
 33 56  1  0
 33 57  1  0
 33 58  1  0
M  END
> <Name>
CHEMBL244535

> <IC50 nM>
0.3

> <Molecule_ChEMBL_ID>
CHEMBL244535

> <Smiles>
COc1c(O)ccc2c1-c1ccc3c(c1/C(=C/c1sccc1C(C)=O)O2)C(C)=CC(C)(C)N3

$$$$
CHEMBL1760023
  SciTegic08162514323D

 49 52  0  0  1  0            999 V2000
    0.4040    1.7710   -0.0020 F   0  0
    0.1520    0.5230    0.4040 C   0  0
   -1.1970    0.1350    0.6210 C   0  0
    1.2110   -0.4160    0.6250 C   0  0
   -1.5060   -1.1740    1.0590 C   0  0
   -2.2750    1.0900    0.3940 C   0  0
    0.8870   -1.7520    1.0270 C   0  0
    2.6660   -0.0350    0.4590 C   0  0
   -2.7660   -1.5510    1.2830 F   0  0
   -0.4670   -2.1080    1.2600 C   0  0
   -3.2620    0.8610   -0.6000 C   0  0
   -2.3520    2.2710    1.1760 C   0  0
    1.8480   -2.6990    1.1870 N   0  0
    3.0530    1.0920   -0.0390 N   0  0
    3.7090   -1.0510    0.9100 C   0  0  3  0  0  0
   -3.4570   -0.1760   -1.5040 N   0  0
   -4.2750    1.7620   -0.8130 C   0  0
   -3.4020    3.2010    0.9530 C   0  0
    3.2340   -2.5080    0.6780 C   0  0
    4.4360    1.4450   -0.1900 O   0  0
    3.9920   -0.8280    2.2810 O   0  0
   -4.6130    0.1390   -2.2560 C   0  0
   -5.1150    1.3690   -1.7990 C   0  0
   -4.3770    2.9510   -0.0490 C   0  0
    4.1720   -3.5200    1.3530 C   0  0
    3.2310   -2.8110   -0.8260 C   0  0
    4.4240    2.7440   -0.7640 C   0  0
   -6.3440    2.0900   -2.3180 C   0  0
   -0.7230   -3.1040    1.5920 H   0  0
   -1.6150    2.4760    1.9430 H   0  0
    1.6230   -3.5700    1.6290 H   0  0
    4.6540   -0.9060    0.3810 H   0  0
   -2.8930   -0.9860   -1.6060 H   0  0
   -3.4590    4.1020    1.5490 H   0  0
    4.4300    0.0330    2.3480 H   0  0
   -5.0120   -0.4900   -3.0410 H   0  0
   -5.1740    3.6620   -0.2150 H   0  0
    4.1540   -3.4300    2.4390 H   0  0
    5.2010   -3.3710    1.0250 H   0  0
    3.8870   -4.5410    1.0980 H   0  0
    2.5630   -2.1470   -1.3730 H   0  0
    2.9100   -3.8360   -1.0120 H   0  0
    4.2310   -2.6940   -1.2440 H   0  0
    5.4510    3.0980   -0.8320 H   0  0
    3.8670    2.6970   -1.7010 H   0  0
    3.8850    3.4100   -0.0900 H   0  0
   -6.5530    3.0370   -1.8180 H   0  0
   -7.2170    1.4510   -2.1990 H   0  0
   -6.2230    2.2950   -3.3830 H   0  0
  1  2  1  0
  2  3  2  0
  2  4  1  0
  3  5  1  0
  3  6  1  0
  4  7  2  0
  4  8  1  0
  5  9  1  0
  5 10  2  0
  6 11  2  0
  6 12  1  0
  7 13  1  0
  8 14  2  0
  8 15  1  0
 11 16  1  0
 11 17  1  0
 12 18  2  0
 13 19  1  0
 14 20  1  0
 15 21  1  0
 16 22  1  0
 17 23  1  0
 17 24  2  0
 19 25  1  0
 19 26  1  0
 20 27  1  0
 23 28  1  0
  7 10  1  0
 15 19  1  0
 18 24  1  0
 22 23  2  0
 10 29  1  0
 12 30  1  0
 13 31  1  0
 15 32  1  0
 16 33  1  0
 18 34  1  0
 21 35  1  0
 22 36  1  0
 24 37  1  0
 25 38  1  0
 25 39  1  0
 25 40  1  0
 26 41  1  0
 26 42  1  0
 26 43  1  0
 27 44  1  0
 27 45  1  0
 27 46  1  0
 28 47  1  0
 28 48  1  0
 28 49  1  0
M  END
> <Name>
CHEMBL1760023

> <IC50 nM>
17

> <Molecule_ChEMBL_ID>
CHEMBL1760023

> <Smiles>
CO/N=C1/c2c(cc(F)c(-c3cccc4c(C)c[nH]c34)c2F)NC(C)(C)C1O

$$$$
CHEMBL302166
  SciTegic08162514323D

 45 48  0  0  1  0            999 V2000
   -2.6430    3.9260    0.5040 S   0  0
   -2.1600    4.1130    1.8610 O   0  0
   -1.8070    4.5660   -0.4960 O   0  0
   -2.6370    2.3360    0.1990 N   0  0
   -4.2970    4.5940    0.3850 C   0  0
   -1.4860    1.6460    0.2540 C   0  0
   -1.4690    0.2560    0.0020 C   0  0
   -0.2730    2.3050    0.5620 C   0  0
   -0.2540   -0.4860    0.0550 C   0  0
    0.9370    1.5820    0.6310 C   0  0
    0.9630    0.1760    0.4040 C   0  0
   -0.2380   -1.9590   -0.2250 C   0  0  2  0  0  0
    2.2070   -0.6330    0.5120 C   0  0
    1.0610   -2.4550   -0.5840 O   0  0
   -1.1720   -2.3650   -1.3150 C   0  0
    2.1840   -1.9450   -0.0430 C   0  0
    3.4160   -0.1760    1.1290 C   0  0
   -0.8770   -2.0250   -2.6040 N   0  0
   -2.3400   -3.0880   -1.0000 C   0  0
    3.3480   -2.7480   -0.0490 C   0  0
    3.5160    1.0120    1.7420 O   0  0
    4.5720   -0.9920    1.1210 C   0  0
   -1.7230   -2.3890   -3.6110 C   0  0
   -3.2170   -3.4670   -2.0310 C   0  0
    4.5430   -2.2720    0.5290 C   0  0
    4.5660    1.1910    2.6820 C   0  0
   -2.9020   -3.1110   -3.3560 C   0  0
   -3.4880    1.8670   -0.0310 H   0  0
   -4.3650    5.6640    0.5800 H   0  0
   -4.9470    4.0840    1.0940 H   0  0
   -4.6920    4.4120   -0.6170 H   0  0
   -2.3970   -0.2500   -0.2340 H   0  0
   -0.2560    3.3690    0.7520 H   0  0
    1.8180    2.1580    0.8530 H   0  0
   -0.5410   -2.4730    0.6890 H   0  0
   -2.5660   -3.3520    0.0230 H   0  0
    3.3260   -3.7310   -0.4960 H   0  0
    5.4860   -0.6370    1.5740 H   0  0
   -1.4790   -2.1150   -4.6270 H   0  0
   -4.1170   -4.0220   -1.8110 H   0  0
    5.4320   -2.8850    0.5210 H   0  0
    4.3980    2.1330    3.2050 H   0  0
    4.6250    0.2970    3.3010 H   0  0
    5.5040    1.2790    2.1310 H   0  0
   -3.5590   -3.3910   -4.1660 H   0  0
  1  2  2  0
  1  3  2  0
  1  4  1  0
  1  5  1  0
  4  6  1  0
  6  7  2  0
  6  8  1  0
  7  9  1  0
  8 10  2  0
  9 11  2  0
  9 12  1  0
 11 13  1  0
 12 14  1  0
 12 15  1  0
 13 16  2  0
 13 17  1  0
 15 18  2  0
 15 19  1  0
 16 20  1  0
 17 21  1  0
 17 22  2  0
 18 23  1  0
 19 24  2  0
 20 25  2  0
 21 26  1  0
 23 27  2  0
 10 11  1  0
 14 16  1  0
 22 25  1  0
 24 27  1  0
  4 28  1  0
  5 29  1  0
  5 30  1  0
  5 31  1  0
  7 32  1  0
  8 33  1  0
 10 34  1  0
 12 35  1  0
 19 36  1  0
 20 37  1  0
 22 38  1  0
 23 39  1  0
 24 40  1  0
 25 41  1  0
 26 42  1  0
 26 43  1  0
 26 44  1  0
 27 45  1  0
M  END
> <Name>
CHEMBL302166

> <IC50 nM>
1430

> <Molecule_ChEMBL_ID>
CHEMBL302166

> <Smiles>
COc1cccc2c1-c1ccc(NS(C)(=O)=O)cc1C(c1ccccn1)O2

$$$$
CHEMBL4208799
  SciTegic08162514323D

 48 50  0  0  1  0            999 V2000
   -0.1840   -4.2500    1.9320 Cl  0  0
   -1.4550   -3.0940    1.8750 C   0  0
   -1.1720   -1.7110    1.9120 C   0  0
   -2.7890   -3.5390    1.7930 C   0  0
    0.0700   -1.2740    1.9880 O   0  0
   -2.2290   -0.7830    1.8630 C   0  0
   -3.8360   -2.6000    1.7460 C   0  0
    0.3650   -0.0040    1.4260 C   0  0  2  0  0  0
   -3.5610   -1.2230    1.7810 C   0  0
   -5.1990   -3.0530    1.6600 C   0  0
   -0.1130    0.0370    0.0200 C   0  0
    1.8710    0.2560    1.5160 C   0  0  1  0  0  0
   -6.2990   -3.4180    1.5920 N   0  0
   -0.8830    1.1250   -0.4450 C   0  0
    0.1930   -1.0100   -0.8750 C   0  0
    2.2050    1.5920    1.0060 N   0  0
    2.4200    0.0530    2.9280 C   0  0
   -1.3200    1.1580   -1.7380 N   0  0
   -0.2500   -0.9650   -2.1660 N   0  0
    3.4730    1.8420    0.5610 C   0  0
   -0.9920    0.1150   -2.5590 C   0  0
    4.3110    0.9710    0.5840 O   0  0
    3.7990    3.2170    0.0410 C   0  0
   -1.4770    0.1580   -3.9790 C   0  0
    3.0120    3.5210   -1.0390 F   0  0
    3.6110    4.1560    1.0220 F   0  0
    5.2680    3.2090   -0.3850 C   0  0
   -2.2620   -1.0120   -4.5370 C   0  0
   -2.9590    0.3030   -4.2600 C   0  0
   -3.0060   -4.5980    1.7640 H   0  0
   -2.0160    0.2750    1.8930 H   0  0
   -0.1520    0.7560    2.0100 H   0  0
   -4.3560   -0.4920    1.7460 H   0  0
    2.4240   -0.4940    0.9510 H   0  0
   -1.1310    1.9390    0.2210 H   0  0
    0.7790   -1.8540   -0.5450 H   0  0
    1.5140    2.3140    0.9840 H   0  0
    3.5000    0.2030    2.9470 H   0  0
    1.9530    0.7480    3.6270 H   0  0
    2.2190   -0.9590    3.2790 H   0  0
   -0.8050    0.6620   -4.6740 H   0  0
    5.5820    4.1760   -0.7730 H   0  0
    5.4390    2.4650   -1.1620 H   0  0
    5.9120    2.9650    0.4610 H   0  0
   -2.4830   -1.8540   -3.8790 H   0  0
   -2.0900   -1.2810   -5.5800 H   0  0
   -3.2520    0.9080   -5.1170 H   0  0
   -3.6490    0.3440   -3.4160 H   0  0
  1  2  1  0
  2  3  2  0
  2  4  1  0
  3  5  1  0
  3  6  1  0
  4  7  2  0
  8  5  1  0
  6  9  2  0
  7 10  1  0
  8 11  1  0
  8 12  1  0
 10 13  3  0
 11 14  2  0
 11 15  1  0
 12 16  1  0
 12 17  1  0
 14 18  1  0
 15 19  2  0
 16 20  1  0
 18 21  2  0
 20 22  2  0
 20 23  1  0
 21 24  1  0
 23 25  1  0
 23 26  1  0
 23 27  1  0
 24 28  1  0
 24 29  1  0
  7  9  1  0
 19 21  1  0
 28 29  1  0
  4 30  1  0
  6 31  1  0
  8 32  1  0
  9 33  1  0
 12 34  1  0
 14 35  1  0
 15 36  1  0
 16 37  1  0
 17 38  1  0
 17 39  1  0
 17 40  1  0
 24 41  1  0
 27 42  1  0
 27 43  1  0
 27 44  1  0
 28 45  1  0
 28 46  1  0
 29 47  1  0
 29 48  1  0
M  END
> <Name>
CHEMBL4208799

> <IC50 nM>
4.1

> <Molecule_ChEMBL_ID>
CHEMBL4208799

> <Smiles>
C[C@H](NC(=O)C(C)(F)F)[C@H](Oc1ccc(C#N)cc1Cl)c1cnc(C2CC2)nc1

$$$$
CHEMBL4217184
  SciTegic08162514323D

 46 48  0  0  1  0            999 V2000
    0.0680   -4.1230    2.1230 Br  0  0
   -1.3590   -2.8950    1.9770 C   0  0
   -1.1210   -1.5040    2.0220 C   0  0
   -2.6740   -3.3790    1.8200 C   0  0
    0.0980   -1.0230    2.1660 O   0  0
   -2.2010   -0.6070    1.9100 C   0  0
   -3.7440   -2.4730    1.7090 C   0  0
    0.4100    0.2070    1.5310 C   0  0  2  0  0  0
   -3.5120   -1.0860    1.7540 C   0  0
   -5.0860   -2.9670    1.5510 C   0  0
    0.0230    0.1390    0.1000 C   0  0
    1.9020    0.5040    1.6990 C   0  0  1  0  0  0
   -6.1700   -3.3630    1.4220 N   0  0
   -0.7520    1.1600   -0.4860 C   0  0
    0.4260   -0.9510   -0.7010 C   0  0
    2.2500    1.8070    1.1150 N   0  0
    2.3610    0.4140    3.1540 C   0  0
   -1.1050    1.0920   -1.8050 N   0  0
    0.0680   -1.0100   -2.0200 N   0  0
    2.7620    1.8610   -0.1500 C   0  0
    3.7700    0.4750    3.1760 O   0  0
   -0.6860    0.0100   -2.5290 C   0  0
    2.9280    0.8460   -0.7850 O   0  0
    3.1110    3.2030   -0.7300 C   0  0
   -1.0760   -0.0590   -3.9750 C   0  0
    1.9430    3.9100   -0.8670 F   0  0
    3.7010    3.0570   -1.9610 F   0  0
    3.9610    3.8830    0.1040 F   0  0
   -0.0020   -0.2270   -5.0310 C   0  0
   -0.7280    1.0920   -4.8990 C   0  0
   -2.8590   -4.4450    1.7850 H   0  0
   -2.0200    0.4570    1.9430 H   0  0
   -0.1560    0.9980    2.0230 H   0  0
   -4.3260   -0.3810    1.6700 H   0  0
    2.5040   -0.2730    1.2250 H   0  0
   -1.0740    2.0060    0.1050 H   0  0
    1.0220   -1.7480   -0.2790 H   0  0
    2.1110    2.6480    1.6390 H   0  0
    1.9770    1.2540    3.7320 H   0  0
    2.0570   -0.5330    3.5980 H   0  0
    4.0450    0.4180    4.1060 H   0  0
   -2.0230   -0.5630   -4.1680 H   0  0
   -0.2380   -0.8500   -5.8950 H   0  0
    1.0410   -0.2680   -4.7130 H   0  0
   -1.4510    1.3520   -5.6740 H   0  0
   -0.1760    1.9370   -4.4900 H   0  0
  1  2  1  0
  2  3  2  0
  2  4  1  0
  3  5  1  0
  3  6  1  0
  4  7  2  0
  8  5  1  0
  6  9  2  0
  7 10  1  0
  8 11  1  0
  8 12  1  0
 10 13  3  0
 11 14  2  0
 11 15  1  0
 12 16  1  0
 12 17  1  0
 14 18  1  0
 15 19  2  0
 16 20  1  0
 17 21  1  0
 18 22  2  0
 20 23  2  0
 20 24  1  0
 22 25  1  0
 24 26  1  0
 24 27  1  0
 24 28  1  0
 25 29  1  0
 25 30  1  0
  7  9  1  0
 19 22  1  0
 29 30  1  0
  4 31  1  0
  6 32  1  0
  8 33  1  0
  9 34  1  0
 12 35  1  0
 14 36  1  0
 15 37  1  0
 16 38  1  0
 17 39  1  0
 17 40  1  0
 21 41  1  0
 25 42  1  0
 29 43  1  0
 29 44  1  0
 30 45  1  0
 30 46  1  0
M  END
> <Name>
CHEMBL4217184

> <IC50 nM>
42

> <Molecule_ChEMBL_ID>
CHEMBL4217184

> <Smiles>
N#Cc1ccc(O[C@H](c2cnc(C3CC3)nc2)[C@H](CO)NC(=O)C(F)(F)F)c(Br)c1

$$$$
CHEMBL4217070
  SciTegic08162514323D

 64 67  0  0  1  0            999 V2000
   -5.7360    0.7030    1.3050 F   0  0
   -5.8160   -0.6130    1.6780 C   0  0
   -6.8610   -1.2130    1.0210 F   0  0
   -4.5270   -1.3280    1.3770 C   0  0
   -6.0470   -0.7010    3.1870 C   0  0
   -3.8770   -1.8380    2.2600 O   0  0
   -4.0980   -1.3890    0.0820 N   0  0
   -2.8400   -2.0800   -0.2310 C   0  0  2  0  0  0
   -1.6720   -1.0960   -0.2850 C   0  0  2  0  0  0
   -2.9730   -2.9100   -1.5080 C   0  0
   -0.5120   -1.7640   -0.7600 O   0  0
   -1.3910   -0.5040    1.0490 C   0  0
   -4.0570   -3.9840   -1.4040 C   0  0
   -3.1170   -2.0450   -2.7620 C   0  0
    0.6230   -1.0590   -0.8630 C   0  0
   -1.8260    0.7990    1.3480 C   0  0
   -0.6890   -1.2480    2.0160 C   0  0
    1.8750   -1.7340   -0.8930 C   0  0
    0.5680    0.3610   -0.9400 C   0  0
   -1.5620    1.3570    2.6090 C   0  0
   -0.4240   -0.6880    3.2770 C   0  0
    3.0700   -0.9770   -1.0000 C   0  0
    1.7640    1.1170   -1.0470 C   0  0
   -0.8610    0.6130    3.5740 C   0  0
    2.9790    0.4020   -1.0720 C   0  0
    4.3400   -1.5660   -1.0370 C   0  0
    4.2850    0.6860   -1.1600 N   0  0
    5.1000   -0.4100   -1.1430 N   0  0
    4.7950    2.0120   -1.2620 C   0  0
    5.9470    2.4570   -0.4280 C   0  0
    4.2330    2.8870   -2.1210 C   0  0
    6.4710    1.6930    0.3510 O   0  0
    6.4140    3.7560   -0.5510 N   0  0
    4.7760    4.2580   -2.2070 C   0  0
    5.8200    4.6310   -1.4380 C   0  0
    7.5530    4.2190    0.2640 C   0  0
   -6.9690   -0.2050    3.4880 H   0  0
   -5.2250   -0.2340    3.7300 H   0  0
   -6.1090   -1.7420    3.5080 H   0  0
   -4.6370   -0.9650   -0.6470 H   0  0
   -2.6600   -2.8520    0.5170 H   0  0
   -1.9200   -0.3030   -0.9900 H   0  0
   -2.0160   -3.3540   -1.7810 H   0  0
   -4.0820   -4.6210   -2.2890 H   0  0
   -5.0410   -3.5290   -1.2930 H   0  0
   -3.8850   -4.6230   -0.5390 H   0  0
   -3.1580   -2.6660   -3.6560 H   0  0
   -4.0210   -1.4400   -2.7090 H   0  0
   -2.2700   -1.3690   -2.8620 H   0  0
   -2.3670    1.3750    0.6090 H   0  0
   -0.3520   -2.2500    1.7930 H   0  0
    1.9040   -2.8130   -0.8340 H   0  0
   -0.3850    0.8670   -0.9160 H   0  0
   -1.8960    2.3590    2.8380 H   0  0
    0.1150   -1.2600    4.0170 H   0  0
    1.7400    2.1950   -1.1060 H   0  0
   -0.6560    1.0430    4.5450 H   0  0
    4.6840   -2.5920   -0.9980 H   0  0
    3.3970    2.6090   -2.7480 H   0  0
    4.3320    4.9670   -2.8910 H   0  0
    6.1780    5.6470   -1.5410 H   0  0
    7.8460    5.2540    0.0940 H   0  0
    8.4200    3.5880    0.0580 H   0  0
    7.3050    4.1090    1.3200 H   0  0
  1  2  1  0
  2  3  1  0
  2  4  1  0
  2  5  1  0
  4  6  2  0
  4  7  1  0
  8  7  1  0
  8  9  1  0
  8 10  1  0
  9 11  1  0
  9 12  1  0
 10 13  1  0
 10 14  1  0
 11 15  1  0
 12 16  2  0
 12 17  1  0
 15 18  2  0
 15 19  1  0
 16 20  1  0
 17 21  2  0
 18 22  1  0
 19 23  2  0
 20 24  2  0
 22 25  2  0
 22 26  1  0
 25 27  1  0
 26 28  2  0
 27 29  1  0
 29 30  1  0
 29 31  2  0
 30 32  2  0
 30 33  1  0
 31 34  1  0
 33 35  1  0
 33 36  1  0
 21 24  1  0
 23 25  1  0
 27 28  1  0
 34 35  2  0
  5 37  1  0
  5 38  1  0
  5 39  1  0
  7 40  1  0
  8 41  1  0
  9 42  1  0
 10 43  1  0
 13 44  1  0
 13 45  1  0
 13 46  1  0
 14 47  1  0
 14 48  1  0
 14 49  1  0
 16 50  1  0
 17 51  1  0
 18 52  1  0
 19 53  1  0
 20 54  1  0
 21 55  1  0
 23 56  1  0
 24 57  1  0
 26 58  1  0
 31 59  1  0
 34 60  1  0
 35 61  1  0
 36 62  1  0
 36 63  1  0
 36 64  1  0
M  END
> <Name>
CHEMBL4217070

> <IC50 nM>
11

> <Molecule_ChEMBL_ID>
CHEMBL4217070

> <Smiles>
CC(C)[C@H](NC(=O)C(C)(F)F)[C@H](Oc1ccc2c(cnn2-c2cccn(C)c2=O)c1)c1ccccc1

$$$$
CHEMBL4207537
  SciTegic08162514323D

 62 65  0  0  1  0            999 V2000
   -1.4120   -6.2910    1.0430 F   0  0
   -2.3500   -5.4100    1.5180 C   0  0
   -1.9200   -4.8790    2.7050 F   0  0
   -2.6040   -4.3180    0.5120 C   0  0
   -3.6740   -6.1450    1.7360 C   0  0
   -2.1540   -4.3870   -0.6070 O   0  0
   -3.3520   -3.2400    0.8890 N   0  0
   -3.6090   -2.1640   -0.0800 C   0  0  2  0  0  0
   -2.4400   -1.1820   -0.1290 C   0  0  2  0  0  0
   -4.9450   -1.4790    0.2050 C   0  0
   -1.2520   -1.8750   -0.4800 O   0  0
   -2.2440   -0.4960    1.1760 C   0  0
   -0.1170   -1.1700   -0.5820 C   0  0
   -2.8220    0.7640    1.4040 C   0  0
   -1.4790   -1.1090    2.1860 C   0  0
    1.1350   -1.8460   -0.6130 C   0  0
   -0.1700    0.2500   -0.6600 C   0  0
   -2.6370    1.4120    2.6390 C   0  0
   -1.2950   -0.4630    3.4200 C   0  0
    2.3300   -1.0880   -0.7210 C   0  0
    1.0230    1.0060   -0.7680 C   0  0
   -1.8730    0.7970    3.6470 C   0  0
    2.2380    0.2910   -0.7930 C   0  0
    3.6020   -1.6780   -0.7580 C   0  0
    3.5450    0.5740   -0.8790 N   0  0
    4.3590   -0.5230   -0.8630 N   0  0
    4.0550    1.8980   -0.9800 C   0  0
    3.4590    2.8070   -1.7930 C   0  0
    5.2440    2.2890   -0.1930 C   0  0
    3.9320    4.1020   -1.9120 N   0  0
    5.7150    3.5470   -0.2990 C   0  0
    5.0410    4.5120   -1.1950 C   0  0
    3.2380    5.0410   -2.8130 C   0  0  3  0  0  0
    5.4650    5.6410   -1.2930 O   0  0
    3.1820    4.4940   -4.1110 O   0  0
    1.8090    5.3010   -2.3400 C   0  0
   -3.5660   -6.9770    2.4320 H   0  0
   -4.0530   -6.5430    0.7970 H   0  0
   -4.4260   -5.4670    2.1410 H   0  0
   -3.7230   -3.1840    1.8160 H   0  0
   -3.6620   -2.7460   -1.0000 H   0  0
   -2.5940   -0.4380   -0.9100 H   0  0
   -4.9510   -0.9920    1.1820 H   0  0
   -5.7600   -2.1990    0.1880 H   0  0
   -5.1540   -0.7190   -0.5470 H   0  0
   -3.4100    1.2400    0.6330 H   0  0
   -1.0310   -2.0780    2.0180 H   0  0
    1.1640   -2.9240   -0.5530 H   0  0
   -1.1250    0.7560   -0.6370 H   0  0
   -3.0820    2.3790    2.8130 H   0  0
   -0.7070   -0.9340    4.1930 H   0  0
    1.0020    2.0840   -0.8260 H   0  0
   -1.7320    1.2950    4.5940 H   0  0
    3.9430   -2.7050   -0.7190 H   0  0
    2.5900    2.4980   -2.3570 H   0  0
    5.7360    1.5820    0.4610 H   0  0
    6.5820    3.8500    0.2700 H   0  0
    3.8030    5.9730   -2.8630 H   0  0
    2.7850    5.1640   -4.6880 H   0  0
    1.3200    6.0390   -2.9770 H   0  0
    1.2270    4.3790   -2.3540 H   0  0
    1.8030    5.6840   -1.3200 H   0  0
  1  2  1  0
  2  3  1  0
  2  4  1  0
  2  5  1  0
  4  6  2  0
  4  7  1  0
  7  8  1  0
  8  9  1  0
  8 10  1  0
  9 11  1  0
  9 12  1  0
 11 13  1  0
 12 14  2  0
 12 15  1  0
 13 16  2  0
 13 17  1  0
 14 18  1  0
 15 19  2  0
 16 20  1  0
 17 21  2  0
 18 22  2  0
 20 23  2  0
 20 24  1  0
 23 25  1  0
 24 26  2  0
 25 27  1  0
 27 28  2  0
 27 29  1  0
 28 30  1  0
 29 31  2  0
 30 32  1  0
 30 33  1  0
 32 34  2  0
 33 35  1  0
 33 36  1  0
 19 22  1  0
 21 23  1  0
 25 26  1  0
 31 32  1  0
  5 37  1  0
  5 38  1  0
  5 39  1  0
  7 40  1  0
  8 41  1  0
  9 42  1  0
 10 43  1  0
 10 44  1  0
 10 45  1  0
 14 46  1  0
 15 47  1  0
 16 48  1  0
 17 49  1  0
 18 50  1  0
 19 51  1  0
 21 52  1  0
 22 53  1  0
 24 54  1  0
 28 55  1  0
 29 56  1  0
 31 57  1  0
 33 58  1  0
 35 59  1  0
 36 60  1  0
 36 61  1  0
 36 62  1  0
M  END
> <Name>
CHEMBL4207537

> <IC50 nM>
75

> <Molecule_ChEMBL_ID>
CHEMBL4207537

> <Smiles>
CC(O)n1cc(-n2ncc3cc(O[C@H](c4ccccc4)[C@H](C)NC(=O)C(C)(F)F)ccc32)ccc1=O

$$$$
CHEMBL4204466
  SciTegic08162514323D

 45 47  0  0  1  0            999 V2000
    0.3950   -4.0720    1.9960 Br  0  0
   -1.0310   -2.8460    1.8480 C   0  0
   -0.7950   -1.4530    1.8930 C   0  0
   -2.3460   -3.3280    1.6910 C   0  0
    0.4260   -0.9730    2.0390 O   0  0
   -1.8730   -0.5590    1.7810 C   0  0
   -3.4160   -2.4220    1.5820 C   0  0
    0.7270    0.2790    1.4410 C   0  0  2  0  0  0
   -3.1840   -1.0370    1.6250 C   0  0
   -4.7580   -2.9160    1.4220 C   0  0
    0.2480    0.2810    0.0330 C   0  0
    2.2310    0.5370    1.5250 C   0  0  1  0  0  0
   -5.8420   -3.3130    1.2930 N   0  0
   -0.5330    1.3500   -0.4590 C   0  0
    0.5680   -0.7810   -0.8360 C   0  0
    2.5700    1.8570    0.9770 N   0  0
    2.7770    0.3750    2.9430 C   0  0
   -0.9690    1.3480   -1.7520 N   0  0
    0.1270   -0.7740   -2.1290 N   0  0
    3.8360    2.0880    0.5160 C   0  0
   -0.6270    0.2890   -2.5470 C   0  0
    4.6680    1.2130    0.5570 O   0  0
    4.1660    3.4450   -0.0410 C   0  0
   -1.1090    0.2930   -3.9690 C   0  0
    5.4790    3.4200   -0.4340 F   0  0
    3.9920    4.4120    0.9140 F   0  0
    3.3710    3.7270   -1.1250 F   0  0
   -1.8750   -0.9020   -4.5020 C   0  0
   -2.5920    0.4080   -4.2560 C   0  0
   -2.5310   -4.3950    1.6580 H   0  0
   -1.6930    0.5060    1.8160 H   0  0
    0.2090    1.0570    2.0020 H   0  0
   -3.9980   -0.3300    1.5410 H   0  0
    2.7830   -0.2290    0.9820 H   0  0
   -0.7910    2.1760    0.1880 H   0  0
    1.1660   -1.6110   -0.4840 H   0  0
    1.8830    2.5820    0.9430 H   0  0
    3.8520    0.5590    2.9650 H   0  0
    2.2850    1.0660    3.6290 H   0  0
    2.6060   -0.6370    3.3110 H   0  0
   -0.4430    0.7890   -4.6760 H   0  0
   -2.0840   -1.7310   -3.8260 H   0  0
   -1.6970   -1.1930   -5.5370 H   0  0
   -2.8930    0.9900   -5.1270 H   0  0
   -3.2830    0.4570   -3.4140 H   0  0
  1  2  1  0
  2  3  2  0
  2  4  1  0
  3  5  1  0
  3  6  1  0
  4  7  2  0
  8  5  1  0
  6  9  2  0
  7 10  1  0
  8 11  1  0
  8 12  1  0
 10 13  3  0
 11 14  2  0
 11 15  1  0
 12 16  1  0
 12 17  1  0
 14 18  1  0
 15 19  2  0
 16 20  1  0
 18 21  2  0
 20 22  2  0
 20 23  1  0
 21 24  1  0
 23 25  1  0
 23 26  1  0
 23 27  1  0
 24 28  1  0
 24 29  1  0
  7  9  1  0
 19 21  1  0
 28 29  1  0
  4 30  1  0
  6 31  1  0
  8 32  1  0
  9 33  1  0
 12 34  1  0
 14 35  1  0
 15 36  1  0
 16 37  1  0
 17 38  1  0
 17 39  1  0
 17 40  1  0
 24 41  1  0
 28 42  1  0
 28 43  1  0
 29 44  1  0
 29 45  1  0
M  END
> <Name>
CHEMBL4204466

> <IC50 nM>
2.5

> <Molecule_ChEMBL_ID>
CHEMBL4204466

> <Smiles>
C[C@H](NC(=O)C(F)(F)F)[C@H](Oc1ccc(C#N)cc1Br)c1cnc(C2CC2)nc1

$$$$
CHEMBL182496
  SciTegic08162514323D

 74 77  0  0  0  0            999 V2000
    4.6460    6.1060    0.2230 S   0  0
    3.7600    6.9810    0.9670 O   0  0
    4.6870    4.7520    0.7480 O   0  0
    4.0880    6.0200   -1.2970 N   0  0
    6.2990    6.7890    0.2600 C   0  0
    3.5080    4.8630   -1.7500 C   0  0
    2.3630    4.3160   -1.1190 C   0  0
    4.0700    4.2150   -2.8670 C   0  0
    1.7950    3.1210   -1.6170 C   0  0
    1.7620    5.0000    0.0660 C   0  0
    3.5000    3.0290   -3.3560 C   0  0
    0.6850    2.5630   -1.0330 N   0  0
    2.3670    2.4840   -2.7340 C   0  0
   -0.6060    2.5310   -1.7340 C   0  0
    0.7790    1.9820    0.3140 C   0  0
   -1.2090    1.1740   -1.7110 C   0  0
    1.5680    0.7230    0.3140 C   0  0
   -0.7270    0.1740   -2.5740 C   0  0
   -2.2640    0.8870   -0.8260 C   0  0
    0.9100   -0.5210    0.3140 C   0  0
    2.9750    0.7730    0.3140 C   0  0
   -1.2970   -1.1090   -2.5510 C   0  0
   -2.8340   -0.3960   -0.8050 C   0  0
    1.6580   -1.7110    0.3140 C   0  0
    3.7210   -0.4180    0.3140 C   0  0
   -2.3540   -1.4000   -1.6660 C   0  0
    3.0620   -1.6600    0.3140 C   0  0
   -2.8870   -2.6040   -1.6470 O   0  0
   -3.3110   -3.0720   -0.4900 C   0  0
   -4.5080   -3.8090   -0.4200 C   0  0
   -2.5690   -2.8400    0.6820 C   0  0
   -4.9610   -4.3090    0.8130 C   0  0
   -3.0200   -3.3400    1.9160 C   0  0
   -4.2170   -4.0740    1.9820 C   0  0
   -4.6950   -4.6040    3.2850 C   0  0
   -3.8070   -5.7400    3.7910 C   0  0
   -3.9470   -7.0140    2.9590 C   0  0
   -3.2700   -6.9020    1.6190 C   0  0
   -2.1310   -6.5040    1.5290 O   0  0
   -4.0100   -7.2680    0.5780 O   0  0
    4.1660    6.8130   -1.9020 H   0  0
    6.7290    6.8690    1.2580 H   0  0
    6.2890    7.7870   -0.1820 H   0  0
    6.9630    6.1680   -0.3400 H   0  0
    4.9430    4.6150   -3.3610 H   0  0
    1.8630    6.0800   -0.0450 H   0  0
    0.7250    4.6860    0.1800 H   0  0
    2.2990    4.7070    0.9690 H   0  0
    3.9360    2.5350   -4.2130 H   0  0
    1.9450    1.5680   -3.1290 H   0  0
   -0.4610    2.8480   -2.7680 H   0  0
   -1.2870    3.2400   -1.2620 H   0  0
   -0.2250    1.7810    0.6890 H   0  0
    1.2460    2.7030    0.9840 H   0  0
    0.0840    0.3890   -3.2560 H   0  0
   -2.6410    1.6500   -0.1600 H   0  0
   -0.1680   -0.5660    0.3140 H   0  0
    3.4860    1.7250    0.3140 H   0  0
   -0.9240   -1.8750   -3.2150 H   0  0
   -3.6430   -0.6130   -0.1230 H   0  0
    1.1520   -2.6660    0.3140 H   0  0
    4.7990   -0.3790    0.3140 H   0  0
    3.6350   -2.5760    0.3140 H   0  0
   -5.0840   -3.9900   -1.3160 H   0  0
   -1.6490   -2.2770    0.6370 H   0  0
   -5.8830   -4.8730    0.8550 H   0  0
   -2.4440   -3.1560    2.8110 H   0  0
   -5.7290   -4.9380    3.1860 H   0  0
   -4.7370   -3.7930    4.0140 H   0  0
   -4.0040   -5.9430    4.8440 H   0  0
   -2.7660   -5.4220    3.8380 H   0  0
   -5.0180   -7.1660    2.8200 H   0  0
   -3.5550   -7.8750    3.5020 H   0  0
   -3.6250   -7.2420   -0.3090 H   0  0
  1  2  2  0
  1  3  2  0
  1  4  1  0
  1  5  1  0
  4  6  1  0
  6  7  2  0
  6  8  1  0
  7  9  1  0
  7 10  1  0
  8 11  2  0
  9 12  1  0
  9 13  2  0
 12 14  1  0
 12 15  1  0
 14 16  1  0
 15 17  1  0
 16 18  2  0
 16 19  1  0
 17 20  2  0
 17 21  1  0
 18 22  1  0
 19 23  2  0
 20 24  1  0
 21 25  2  0
 22 26  2  0
 24 27  2  0
 26 28  1  0
 28 29  1  0
 29 30  2  0
 29 31  1  0
 30 32  1  0
 31 33  2  0
 32 34  2  0
 34 35  1  0
 35 36  1  0
 36 37  1  0
 37 38  1  0
 38 39  2  0
 38 40  1  0
 11 13  1  0
 23 26  1  0
 25 27  1  0
 33 34  1  0
  4 41  1  0
  5 42  1  0
  5 43  1  0
  5 44  1  0
  8 45  1  0
 10 46  1  0
 10 47  1  0
 10 48  1  0
 11 49  1  0
 13 50  1  0
 14 51  1  0
 14 52  1  0
 15 53  1  0
 15 54  1  0
 18 55  1  0
 19 56  1  0
 20 57  1  0
 21 58  1  0
 22 59  1  0
 23 60  1  0
 24 61  1  0
 25 62  1  0
 27 63  1  0
 30 64  1  0
 31 65  1  0
 32 66  1  0
 33 67  1  0
 35 68  1  0
 35 69  1  0
 36 70  1  0
 36 71  1  0
 37 72  1  0
 37 73  1  0
 40 74  1  0
M  END
> <Name>
CHEMBL182496

> <IC50 nM>
8.8

> <Molecule_ChEMBL_ID>
CHEMBL182496

> <Smiles>
Cc1c(NS(C)(=O)=O)cccc1N(Cc1ccccc1)Cc1ccc(Oc2ccc(CCCC(=O)O)cc2)cc1

$$$$
CHEMBL394168
  SciTegic08162514323D

 64 67  0  0  1  0            999 V2000
    0.6170   -2.1640   -3.1910 F   0  0
    0.5740   -2.4530   -1.8520 C   0  0
   -0.0570   -3.6560   -1.6640 F   0  0
    1.8540   -2.5270   -1.3610 F   0  0
   -0.1910   -1.3540   -1.1150 C   0  0  3  0  0  0
   -0.4450   -0.3090   -2.0250 O   0  0
    0.5900   -0.7810    0.0660 C   0  0
   -1.5310   -1.9610   -0.6970 C   0  0
    0.1880    0.6050    0.3420 N   0  0
   -1.4200   -2.8320    0.5590 C   0  0  3  0  0  0
    0.8910    1.6330   -0.2210 C   0  0
   -0.3550   -3.8630    0.3240 C   0  0
   -2.8030   -3.4550    0.8570 C   0  0
   -1.0450   -1.9300    1.7460 C   0  0
    1.8360    1.4040   -0.9390 O   0  0
    0.4940    3.0100    0.0490 C   0  0
   -0.6680   -5.2440    0.1170 C   0  0
    1.0080   -3.4550    0.2850 C   0  0
   -3.1090   -4.6330   -0.0680 C   0  0
    0.1580   -2.4530    2.5290 C   0  0
    1.1370    4.1800   -0.4260 C   0  0
   -0.6050    3.4100    0.8340 C   0  0
    0.3770   -6.1760   -0.1110 C   0  0
   -2.0700   -5.7380    0.1410 C   0  0
    2.0370   -4.3930    0.0550 C   0  0
    0.4240    5.2210    0.0760 N   0  0
    2.3340    4.2250   -1.2870 N   0  0
   -0.5920    4.7560    0.8110 N   0  0
    1.7230   -5.7540   -0.1450 C   0  0
    0.6780    6.5410   -0.1210 C   0  0
    0.6700    7.4320    0.9690 C   0  0
    0.9530    7.0220   -1.4160 C   0  0
    0.9340    8.7970    0.7620 C   0  0
    1.2170    8.3870   -1.6190 C   0  0
    1.2070    9.2740   -0.5310 C   0  0
   -1.1350    0.2500   -1.6350 H   0  0
    1.6620   -0.8110   -0.1290 H   0  0
    0.4340   -1.3830    0.9610 H   0  0
   -2.2810   -1.1820   -0.5630 H   0  0
   -1.9710   -2.5250   -1.5200 H   0  0
   -0.5940    0.7970    0.9360 H   0  0
   -3.5860   -2.6990    0.7700 H   0  0
   -2.8420   -3.8050    1.8910 H   0  0
   -0.8710   -0.9060    1.4100 H   0  0
   -1.9000   -1.7850    2.4040 H   0  0
    1.2700   -2.4180    0.4340 H   0  0
   -4.1090   -5.0180    0.1310 H   0  0
   -3.1060   -4.3030   -1.1070 H   0  0
   -0.0550   -2.4710    3.5980 H   0  0
    0.4220   -3.4610    2.2030 H   0  0
    1.0270   -1.8160    2.3730 H   0  0
   -1.3300    2.8030    1.3610 H   0  0
    0.1460   -7.2210   -0.2620 H   0  0
   -2.2420   -6.2210    1.1040 H   0  0
   -2.2130   -6.5080   -0.6210 H   0  0
    3.0660   -4.0680    0.0270 H   0  0
    2.8300    5.0740   -1.4590 H   0  0
    2.6720    3.3890   -1.7170 H   0  0
    2.5100   -6.4710   -0.3220 H   0  0
    0.4610    7.0840    1.9710 H   0  0
    0.9650    6.3540   -2.2680 H   0  0
    0.9280    9.4810    1.6000 H   0  0
    1.4260    8.7540   -2.6130 H   0  0
    1.4100   10.3240   -0.6880 H   0  0
  1  2  1  0
  2  3  1  0
  2  4  1  0
  2  5  1  0
  5  6  1  0
  5  7  1  0
  5  8  1  0
  7  9  1  0
  8 10  1  0
  9 11  1  0
 10 12  1  0
 10 13  1  0
 10 14  1  0
 11 15  2  0
 11 16  1  0
 12 17  2  0
 12 18  1  0
 13 19  1  0
 14 20  1  0
 16 21  2  0
 16 22  1  0
 17 23  1  0
 17 24  1  0
 18 25  2  0
 21 26  1  0
 21 27  1  0
 22 28  2  0
 23 29  2  0
 26 30  1  0
 30 31  2  0
 30 32  1  0
 31 33  1  0
 32 34  2  0
 33 35  2  0
 19 24  1  0
 25 29  1  0
 26 28  1  0
 34 35  1  0
  6 36  1  0
  7 37  1  0
  7 38  1  0
  8 39  1  0
  8 40  1  0
  9 41  1  0
 13 42  1  0
 13 43  1  0
 14 44  1  0
 14 45  1  0
 18 46  1  0
 19 47  1  0
 19 48  1  0
 20 49  1  0
 20 50  1  0
 20 51  1  0
 22 52  1  0
 23 53  1  0
 24 54  1  0
 24 55  1  0
 25 56  1  0
 27 57  1  0
 27 58  1  0
 29 59  1  0
 31 60  1  0
 32 61  1  0
 33 62  1  0
 34 63  1  0
 35 64  1  0
M  END
> <Name>
CHEMBL394168

> <IC50 nM>
7.41

> <Molecule_ChEMBL_ID>
CHEMBL394168

> <Smiles>
CCC1(CC(O)(CNC(=O)c2cnn(-c3ccccc3)c2N)C(F)(F)F)CCCc2ccccc21

$$$$
CHEMBL236947
  SciTegic08162514323D

 61 64  0  0  1  0            999 V2000
    4.0000    2.8890    2.0430 F   0  0
    2.9610    3.5630    1.4530 C   0  0
    2.0880    3.9940    2.4180 F   0  0
    3.4510    4.6450    0.7660 F   0  0
    2.2320    2.6310    0.4860 C   0  0  3  0  0  0
    3.1000    2.3420   -0.5860 O   0  0
    0.9570    3.2520   -0.0840 C   0  0
    1.9670    1.3320    1.2480 C   0  0
   -0.2340    2.5180    0.3670 N   0  0
    1.9570    0.0980    0.3340 C   0  0  3  0  0  0
   -1.0860    1.9880   -0.5610 C   0  0
    3.2640   -0.6310    0.4060 C   0  0
    0.7620   -0.7850    0.7560 C   0  0
    1.7480    0.5680   -1.1110 C   0  0
   -0.8650    2.1230   -1.7400 O   0  0
   -2.2700    1.2600   -0.1170 C   0  0
    3.3280   -2.0590    0.4840 C   0  0
    4.4790    0.1090    0.3790 C   0  0
    0.8260   -2.1680    0.1070 C   0  0
   -3.0220    0.3320   -0.8770 C   0  0
   -2.8670    1.3570    1.1560 C   0  0
    4.5920   -2.7050    0.5210 C   0  0
    2.1040   -2.8990    0.5390 C   0  0
    5.7290   -0.5450    0.4260 C   0  0
   -4.0220   -0.0880   -0.0630 N   0  0
   -2.7480   -0.0720   -2.2700 N   0  0
   -3.9180    0.5200    1.1230 N   0  0
    5.7850   -1.9530    0.4940 C   0  0
   -4.9900   -0.9880   -0.3750 C   0  0
   -4.6620   -2.3440   -0.5660 C   0  0
   -6.3280   -0.5660   -0.5100 C   0  0
   -5.6660   -3.2720   -0.8910 C   0  0
   -7.3300   -1.4980   -0.8340 C   0  0
   -7.0000   -2.8500   -1.0230 C   0  0
    3.0530    3.0900   -1.2030 H   0  0
    0.9840    3.2560   -1.1740 H   0  0
    0.8690    4.2950    0.2150 H   0  0
    2.6860    1.2070    2.0570 H   0  0
    1.0370    1.4000    1.8140 H   0  0
   -0.4180    2.4040    1.3440 H   0  0
   -0.1800   -0.2970    0.5000 H   0  0
    0.7500   -0.9080    1.8420 H   0  0
    1.1430   -0.1480   -1.6660 H   0  0
    1.2560    1.5410   -1.1330 H   0  0
    2.7030    0.6660   -1.6270 H   0  0
    4.4590    1.1890    0.3220 H   0  0
    0.8010   -2.0680   -0.9790 H   0  0
   -0.0490   -2.7560    0.3830 H   0  0
   -2.5780    1.9630    2.0060 H   0  0
    4.6450   -3.7810    0.5740 H   0  0
    1.9820   -3.2500    1.5640 H   0  0
    2.2300   -3.7870   -0.0800 H   0  0
    6.6430    0.0310    0.4100 H   0  0
   -3.3650   -0.6740   -2.7770 H   0  0
   -1.9240    0.2540   -2.7320 H   0  0
    6.7400   -2.4570    0.5230 H   0  0
   -3.6430   -2.6880   -0.4690 H   0  0
   -6.6040    0.4710   -0.3670 H   0  0
   -5.4120   -4.3130   -1.0370 H   0  0
   -8.3560   -1.1720   -0.9360 H   0  0
   -7.7720   -3.5650   -1.2730 H   0  0
  1  2  1  0
  2  3  1  0
  2  4  1  0
  2  5  1  0
  5  6  1  0
  5  7  1  0
  5  8  1  0
  7  9  1  0
  8 10  1  0
  9 11  1  0
 10 12  1  0
 10 13  1  0
 10 14  1  0
 11 15  2  0
 11 16  1  0
 12 17  2  0
 12 18  1  0
 13 19  1  0
 16 20  2  0
 16 21  1  0
 17 22  1  0
 17 23  1  0
 18 24  2  0
 20 25  1  0
 20 26  1  0
 21 27  2  0
 22 28  2  0
 25 29  1  0
 29 30  2  0
 29 31  1  0
 30 32  1  0
 31 33  2  0
 32 34  2  0
 19 23  1  0
 24 28  1  0
 25 27  1  0
 33 34  1  0
  6 35  1  0
  7 36  1  0
  7 37  1  0
  8 38  1  0
  8 39  1  0
  9 40  1  0
 13 41  1  0
 13 42  1  0
 14 43  1  0
 14 44  1  0
 14 45  1  0
 18 46  1  0
 19 47  1  0
 19 48  1  0
 21 49  1  0
 22 50  1  0
 23 51  1  0
 23 52  1  0
 24 53  1  0
 26 54  1  0
 26 55  1  0
 28 56  1  0
 30 57  1  0
 31 58  1  0
 32 59  1  0
 33 60  1  0
 34 61  1  0
M  END
> <Name>
CHEMBL236947

> <IC50 nM>
5.13

> <Molecule_ChEMBL_ID>
CHEMBL236947

> <Smiles>
CC1(CC(O)(CNC(=O)c2cnn(-c3ccccc3)c2N)C(F)(F)F)CCCc2ccccc21

$$$$
CHEMBL391874
  SciTegic08162514323D

 63 66  0  0  1  0            999 V2000
   -1.1890    3.5040    0.9100 S   0  0
   -2.2130    4.1840    0.1350 O   0  0
   -1.1430    3.9340    2.2970 O   0  0
   -1.6500    1.8260    0.9430 N   0  0
    0.3300    3.8240    0.1950 C   0  0
   -0.8140    0.9040    1.6950 C   0  0
    0.6560    3.6090   -1.1580 C   0  0
    1.4490    4.3460    0.8690 C   0  0
   -1.6500   -0.2540    2.2380 C   0  0  3  0  0  0
    1.9490    3.9980   -1.2750 N   0  0
   -0.2130    3.0640   -2.2770 C   0  0
    2.3990    4.4260   -0.0860 N   0  0
   -2.7850   -0.4040    1.4140 O   0  0
   -2.1230    0.1640    3.6310 C   0  0
   -0.8870   -1.5780    2.2480 C   0  0
    2.6900    3.9670   -2.4120 C   0  0
   -2.6800    1.4160    3.5680 F   0  0
   -1.0550    0.1820    4.4900 F   0  0
   -3.0590   -0.7300    4.0840 F   0  0
   -1.2600   -2.4880    1.0660 C   0  0  3  0  0  0
    3.3990    5.1130   -2.8240 C   0  0
    2.7540    2.7910   -3.1840 C   0  0
   -0.1950   -3.5180    0.8360 C   0  0
   -2.6430   -3.1090    1.3710 C   0  0
   -1.3710   -1.6210   -0.1950 C   0  0
    4.1660    5.0800   -4.0020 C   0  0
    3.5220    2.7600   -4.3600 C   0  0
   -0.5080   -4.9000    0.6410 C   0  0
    1.1660   -3.1090    0.7970 C   0  0
   -2.9510   -4.2930    0.4530 C   0  0
    4.2290    3.9040   -4.7700 C   0  0
    0.5370   -5.8340    0.4180 C   0  0
   -1.9080   -5.3970    0.6640 C   0  0
    2.1990   -4.0490    0.5780 C   0  0
    1.8850   -5.4100    0.3890 C   0  0
   -1.7340    1.4750   -0.0200 H   0  0
   -0.3220    1.4390    2.5080 H   0  0
   -0.0140    0.5350    1.0530 H   0  0
    1.5660    4.6290    1.9060 H   0  0
   -1.2620    3.1350   -1.9900 H   0  0
    0.0100    3.5960   -3.2010 H   0  0
    0.0180    2.0100   -2.4360 H   0  0
   -3.4300    0.2660    1.6890 H   0  0
   -1.0290   -2.1000    3.1930 H   0  0
    0.1890   -1.4020    2.2730 H   0  0
    3.3630    6.0270   -2.2480 H   0  0
    2.2190    1.9000   -2.8850 H   0  0
   -3.4260   -2.3540    1.2790 H   0  0
   -2.6820   -3.4550    2.4040 H   0  0
   -0.9770   -0.6170   -0.0350 H   0  0
   -2.4120   -1.5230   -0.5060 H   0  0
   -0.8160   -2.0680   -1.0200 H   0  0
    4.7090    5.9590   -4.3170 H   0  0
    3.5700    1.8570   -4.9510 H   0  0
    1.4280   -2.0700    0.9340 H   0  0
   -3.9490   -4.6800    0.6580 H   0  0
   -2.9510   -3.9670   -0.5880 H   0  0
    4.8180    3.8810   -5.6740 H   0  0
    0.3090   -6.8790    0.2710 H   0  0
   -2.0820   -5.8730    1.6310 H   0  0
   -2.0490   -6.1700   -0.0920 H   0  0
    3.2290   -3.7230    0.5530 H   0  0
    2.6740   -6.1290    0.2230 H   0  0
  1  2  2  0
  1  3  2  0
  1  4  1  0
  1  5  1  0
  4  6  1  0
  5  7  2  0
  5  8  1  0
  6  9  1  0
  7 10  1  0
  7 11  1  0
  8 12  2  0
  9 13  1  0
  9 14  1  0
  9 15  1  0
 10 16  1  0
 14 17  1  0
 14 18  1  0
 14 19  1  0
 15 20  1  0
 16 21  2  0
 16 22  1  0
 20 23  1  0
 20 24  1  0
 20 25  1  0
 21 26  1  0
 22 27  2  0
 23 28  2  0
 23 29  1  0
 24 30  1  0
 26 31  2  0
 28 32  1  0
 28 33  1  0
 29 34  2  0
 32 35  2  0
 10 12  1  0
 27 31  1  0
 30 33  1  0
 34 35  1  0
  4 36  1  0
  6 37  1  0
  6 38  1  0
  8 39  1  0
 11 40  1  0
 11 41  1  0
 11 42  1  0
 13 43  1  0
 15 44  1  0
 15 45  1  0
 21 46  1  0
 22 47  1  0
 24 48  1  0
 24 49  1  0
 25 50  1  0
 25 51  1  0
 25 52  1  0
 26 53  1  0
 27 54  1  0
 29 55  1  0
 30 56  1  0
 30 57  1  0
 31 58  1  0
 32 59  1  0
 33 60  1  0
 33 61  1  0
 34 62  1  0
 35 63  1  0
M  END
> <Name>
CHEMBL391874

> <IC50 nM>
34.67

> <Molecule_ChEMBL_ID>
CHEMBL391874

> <Smiles>
Cc1c(S(=O)(=O)NCC(O)(CC2(C)CCCc3ccccc32)C(F)(F)F)cnn1-c1ccccc1

$$$$
CHEMBL4213734
  SciTegic08162514323D

 48 50  0  0  1  0            999 V2000
   -0.0900   -4.2350    2.0200 Br  0  0
   -1.5180   -3.0060    1.8730 C   0  0
   -1.2790   -1.6150    1.9180 C   0  0
   -2.8320   -3.4900    1.7170 C   0  0
   -0.0610   -1.1350    2.0640 O   0  0
   -2.3590   -0.7190    1.8070 C   0  0
   -3.9000   -2.5840    1.6050 C   0  0
    0.2500    0.1010    1.4370 C   0  0  2  0  0  0
   -3.6700   -1.1970    1.6500 C   0  0
   -5.2440   -3.0780    1.4470 C   0  0
   -0.1150    0.0330   -0.0020 C   0  0
    1.7340    0.4120    1.6270 C   0  0  1  0  0  0
   -6.3280   -3.4750    1.3180 N   0  0
   -0.8730    1.0600   -0.6020 C   0  0
    0.2910   -1.0630   -0.7950 C   0  0
    2.0680    1.7420    1.0980 N   0  0
    2.1860    0.2710    3.0820 C   0  0
   -1.2050    0.9920   -1.9240 N   0  0
   -0.0470   -1.1190   -2.1150 N   0  0
    3.3520    2.0100    0.7210 C   0  0
   -0.7830   -0.0940   -2.6410 C   0  0
    4.2090    1.1640    0.8200 O   0  0
    3.6760    3.3790    0.1800 C   0  0
   -1.1520   -0.1640   -4.0940 C   0  0
    2.9450    3.6310   -0.9530 F   0  0
    3.4080    4.3400    1.1190 F   0  0
    5.1660    3.3960   -0.1580 C   0  0
   -1.8300   -1.4060   -4.6350 C   0  0
   -2.6110   -0.1170   -4.5000 C   0  0
   -3.0180   -4.5570    1.6820 H   0  0
   -2.1780    0.3460    1.8400 H   0  0
   -0.3320    0.8850    1.9220 H   0  0
   -4.4840   -0.4920    1.5660 H   0  0
    2.3520   -0.3380    1.1310 H   0  0
   -1.1970    1.9080   -0.0160 H   0  0
    0.8730   -1.8610   -0.3590 H   0  0
    1.3610    2.4430    1.0160 H   0  0
    3.2520    0.4780    3.1780 H   0  0
    1.6330    0.9590    3.7250 H   0  0
    2.0080   -0.7400    3.4450 H   0  0
   -0.4510    0.3320   -4.7660 H   0  0
    5.4810    4.3610   -0.5590 H   0  0
    5.4020    2.6350   -0.9020 H   0  0
    5.7660    3.1930    0.7280 H   0  0
   -2.0630   -2.2170   -3.9430 H   0  0
   -1.5610   -1.7290   -5.6410 H   0  0
   -2.8630    0.4200   -5.4140 H   0  0
   -3.3670   -0.0610   -3.7170 H   0  0
  1  2  1  0
  2  3  2  0
  2  4  1  0
  3  5  1  0
  3  6  1  0
  4  7  2  0
  8  5  1  0
  6  9  2  0
  7 10  1  0
  8 11  1  0
  8 12  1  0
 10 13  3  0
 11 14  2  0
 11 15  1  0
 12 16  1  0
 12 17  1  0
 14 18  1  0
 15 19  2  0
 16 20  1  0
 18 21  2  0
 20 22  2  0
 20 23  1  0
 21 24  1  0
 23 25  1  0
 23 26  1  0
 23 27  1  0
 24 28  1  0
 24 29  1  0
  7  9  1  0
 19 21  1  0
 28 29  1  0
  4 30  1  0
  6 31  1  0
  8 32  1  0
  9 33  1  0
 12 34  1  0
 14 35  1  0
 15 36  1  0
 16 37  1  0
 17 38  1  0
 17 39  1  0
 17 40  1  0
 24 41  1  0
 27 42  1  0
 27 43  1  0
 27 44  1  0
 28 45  1  0
 28 46  1  0
 29 47  1  0
 29 48  1  0
M  END
> <Name>
CHEMBL4213734

> <IC50 nM>
1.1

> <Molecule_ChEMBL_ID>
CHEMBL4213734

> <Smiles>
C[C@H](NC(=O)C(C)(F)F)[C@H](Oc1ccc(C#N)cc1Br)c1cnc(C2CC2)nc1

$$$$
CHEMBL4216649
  SciTegic08162514323D

 49 52  0  0  1  0            999 V2000
    0.0160   -3.9690    1.6970 Br  0  0
   -1.4100   -2.7400    1.5510 C   0  0
   -1.1740   -1.3500    1.5960 C   0  0
   -2.7270   -3.2250    1.3950 C   0  0
    0.0470   -0.8690    1.7400 O   0  0
   -2.2520   -0.4530    1.4840 C   0  0
   -3.7950   -2.3180    1.2830 C   0  0
    0.3520    0.3730    1.1250 C   0  0  2  0  0  0
   -3.5650   -0.9320    1.3280 C   0  0
   -5.1390   -2.8120    1.1250 C   0  0
   -0.0350    0.3240   -0.3090 C   0  0
    1.8420    0.6740    1.2950 C   0  0  1  0  0  0
   -6.2210   -3.2090    0.9960 N   0  0
   -0.8200    1.3500   -0.8770 C   0  0
    0.3750   -0.7500   -1.1270 C   0  0
    2.1890    1.9690    0.6930 N   0  0
    2.1990    0.6470    2.7750 C   0  0
   -1.1740    1.2990   -2.1950 N   0  0
    0.0160   -0.7890   -2.4450 N   0  0
    3.4750    2.1950    0.2890 C   0  0
    2.3950   -0.6800    3.4770 C   0  0
    3.5840    0.2150    3.2070 C   0  0
   -0.7460    0.2340   -2.9380 C   0  0
    4.3180    1.3400    0.4240 O   0  0
    3.8140    3.5260   -0.3260 C   0  0
   -1.1390    0.1840   -4.3870 C   0  0
    5.1560    3.6040   -0.5960 F   0  0
    3.4570    4.5490    0.5140 F   0  0
    3.1090    3.6290   -1.4980 F   0  0
   -1.8320   -1.0490   -4.9320 C   0  0
   -2.6040    0.2420   -4.7680 C   0  0
   -2.9120   -4.2890    1.3590 H   0  0
   -2.0720    0.6110    1.5180 H   0  0
   -0.2190    1.1540    1.6290 H   0  0
   -4.3770   -0.2260    1.2440 H   0  0
    2.4450   -0.0450    0.7400 H   0  0
   -1.1480    2.1820   -0.2720 H   0  0
    0.9770   -1.5470   -0.7170 H   0  0
    1.5000    2.6820    0.5760 H   0  0
    1.7270    1.4450    3.3480 H   0  0
    2.0450   -0.7640    4.5060 H   0  0
    2.2990   -1.5920    2.8870 H   0  0
    4.0350    0.7330    4.0530 H   0  0
    4.2870   -0.0940    2.4320 H   0  0
   -0.4450    0.6840   -5.0650 H   0  0
   -2.0570   -1.8670   -4.2460 H   0  0
   -1.5800   -1.3590   -5.9450 H   0  0
   -2.8670    0.7910   -5.6720 H   0  0
   -3.3480    0.2910   -3.9710 H   0  0
  1  2  1  0
  2  3  2  0
  2  4  1  0
  3  5  1  0
  3  6  1  0
  4  7  2  0
  8  5  1  0
  6  9  2  0
  7 10  1  0
  8 11  1  0
  8 12  1  0
 10 13  3  0
 11 14  2  0
 11 15  1  0
 12 16  1  0
 12 17  1  0
 14 18  1  0
 15 19  2  0
 16 20  1  0
 17 21  1  0
 17 22  1  0
 18 23  2  0
 20 24  2  0
 20 25  1  0
 23 26  1  0
 25 27  1  0
 25 28  1  0
 25 29  1  0
 26 30  1  0
 26 31  1  0
  7  9  1  0
 19 23  1  0
 21 22  1  0
 30 31  1  0
  4 32  1  0
  6 33  1  0
  8 34  1  0
  9 35  1  0
 12 36  1  0
 14 37  1  0
 15 38  1  0
 16 39  1  0
 17 40  1  0
 21 41  1  0
 21 42  1  0
 22 43  1  0
 22 44  1  0
 26 45  1  0
 30 46  1  0
 30 47  1  0
 31 48  1  0
 31 49  1  0
M  END
> <Name>
CHEMBL4216649

> <IC50 nM>
340

> <Molecule_ChEMBL_ID>
CHEMBL4216649

> <Smiles>
N#Cc1ccc(O[C@H](c2cnc(C3CC3)nc2)[C@@H](NC(=O)C(F)(F)F)C2CC2)c(Br)c1

$$$$
CHEMBL394369
  SciTegic08162514323D

 57 61  0  0  0  0            999 V2000
    2.9860   -0.9120   -2.8830 S   0  0
    1.5940    0.0620   -2.9400 C   0  0
    3.4060   -0.5760   -4.4920 C   0  0
    1.4380    0.6600   -4.2050 C   0  0
    0.6910    0.2420   -1.8090 C   0  0
    2.4770    0.2910   -5.0880 C   0  0
    0.2990    1.5860   -4.5840 C   0  0
    0.9590   -0.2640   -0.5840 C   0  0
    0.4800    2.8340   -3.9570 O   0  0
    2.1620   -0.8300   -0.4470 O   0  0
    0.0060   -0.1310    0.5660 C   0  0
    2.6930   -1.0650    0.7730 C   0  0
   -1.4080    0.0880    0.4320 C   0  0
    0.5920   -0.2150    1.8650 C   0  0
    1.9820   -0.7600    1.9840 C   0  0
    3.9920   -1.6190    0.8200 C   0  0
   -2.1270    0.6230    1.5410 C   0  0
   -2.1890   -0.2640   -0.8070 C   0  0
   -0.1780    0.2320    2.9790 C   0  0
    2.6450   -1.0100    3.2340 C   0  0
    4.6230   -1.8580    2.0570 C   0  0
   -3.4040    1.0600    1.3980 N   0  0
   -1.5000    0.6870    2.8090 C   0  0
   -3.4320    0.2400   -0.9690 C   0  0
   -1.6760   -1.2090   -1.8650 C   0  0
    2.0760   -0.7720    4.4220 O   0  0
    3.9550   -1.5470    3.2560 C   0  0
   -4.0700    1.1460    0.0660 C   0  0
    2.1110   -1.8010    5.3980 C   0  0
    4.5680   -1.7700    4.4280 O   0  0
   -3.9920    2.5900   -0.4320 C   0  0
   -5.5390    0.7380    0.2230 C   0  0
    4.2790   -0.9830   -4.9830 H   0  0
   -0.2050    0.8160   -1.9920 H   0  0
    2.5490    0.6370   -6.1100 H   0  0
   -0.6430    1.1640   -4.2360 H   0  0
    0.3050    1.7440   -5.6620 H   0  0
   -0.2640    3.3980   -4.2210 H   0  0
    4.5100   -1.8580   -0.0960 H   0  0
    0.1930    0.2620    3.9860 H   0  0
    5.6170   -2.2790    2.0800 H   0  0
   -3.9240    1.3570    2.2010 H   0  0
   -2.0310    1.0760    3.6680 H   0  0
   -3.9920   -0.0080   -1.8590 H   0  0
   -0.7700   -1.7400   -1.5720 H   0  0
   -1.4570   -0.6580   -2.7790 H   0  0
   -2.4380   -1.9530   -2.0980 H   0  0
    2.0740   -2.7600    4.8850 H   0  0
    2.9770   -1.6330    6.0410 H   0  0
    1.2170   -1.7170    6.0180 H   0  0
    5.4590   -2.1470    4.4320 H   0  0
   -2.9610    2.9220   -0.5590 H   0  0
   -4.4750    3.2680    0.2710 H   0  0
   -4.4940    2.6950   -1.3930 H   0  0
   -5.6410   -0.2870    0.5800 H   0  0
   -6.0630    0.8140   -0.7290 H   0  0
   -6.0450    1.3910    0.9360 H   0  0
  1  2  1  0
  1  3  1  0
  2  4  2  0
  2  5  1  0
  3  6  2  0
  4  7  1  0
  5  8  2  0
  7  9  1  0
  8 10  1  0
  8 11  1  0
 10 12  1  0
 11 13  2  0
 11 14  1  0
 12 15  2  0
 12 16  1  0
 13 17  1  0
 13 18  1  0
 14 19  2  0
 15 20  1  0
 16 21  2  0
 17 22  1  0
 17 23  2  0
 18 24  2  0
 18 25  1  0
 20 26  1  0
 20 27  2  0
 22 28  1  0
 26 29  1  0
 27 30  1  0
 28 31  1  0
 28 32  1  0
  4  6  1  0
 14 15  1  0
 19 23  1  0
 21 27  1  0
 24 28  1  0
  3 33  1  0
  5 34  1  0
  6 35  1  0
  7 36  1  0
  7 37  1  0
  9 38  1  0
 16 39  1  0
 19 40  1  0
 21 41  1  0
 22 42  1  0
 23 43  1  0
 24 44  1  0
 25 45  1  0
 25 46  1  0
 25 47  1  0
 29 48  1  0
 29 49  1  0
 29 50  1  0
 30 51  1  0
 31 52  1  0
 31 53  1  0
 31 54  1  0
 32 55  1  0
 32 56  1  0
 32 57  1  0
M  END
> <Name>
CHEMBL394369

> <IC50 nM>
0.2

> <Molecule_ChEMBL_ID>
CHEMBL394369

> <Smiles>
COc1c(O)ccc2c1-c1ccc3c(c1/C(=C/c1sccc1CO)O2)C(C)=CC(C)(C)N3

$$$$
CHEMBL309909
  SciTegic08162514323D

 55 59  0  0  1  0            999 V2000
   -5.1290    6.9670   -0.3870 F   0  0
   -4.7320    5.6970   -0.3500 C   0  0
   -5.3140    4.8030    0.5660 C   0  0
   -3.7300    5.2480   -1.2270 C   0  0
   -4.8960    3.4630    0.6050 C   0  0
   -3.3110    3.9060   -1.1900 C   0  0
   -3.8930    3.0100   -0.2740 C   0  0
   -3.4880    1.7130   -0.2360 N   0  0
   -4.3260    0.6440   -0.1780 N   0  0
   -2.1970    1.2850   -0.2560 C   0  0
   -3.6680   -0.5470   -0.1430 C   0  0
   -2.3520   -0.0880   -0.1800 C   0  0
   -0.9060    1.9860   -0.3360 C   0  0
   -1.1030   -0.9550   -0.1170 C   0  0
    0.2230    1.2660   -0.5180 C   0  0
    0.1860   -0.2660   -0.6880 C   0  0  1  0  0  0
    1.5570    1.9820   -0.5960 C   0  0
    1.4240   -0.9400   -0.0310 C   0  0  1  0  0  0
    0.2270   -0.4920   -2.2050 C   0  0
    2.7050    1.2270    0.0760 C   0  0
    1.5120   -2.4360   -0.3630 C   0  0  1  0  0  0
    2.7440   -0.2340   -0.3730 C   0  0
    2.1780   -2.5740   -1.5980 O   0  0
    2.2520   -3.1860    0.6850 C   0  0
    3.6540   -3.2830    0.6250 C   0  0
    1.5510   -3.8010    1.7380 C   0  0
    4.3560   -3.9920    1.6150 C   0  0
    2.2500   -4.5100    2.7280 C   0  0
    5.6700   -4.0840    1.5600 O   0  0
    3.6510   -4.6060    2.6680 C   0  0
   -6.0860    5.1450    1.2420 H   0  0
   -3.2790    5.9320   -1.9320 H   0  0
   -5.3570    2.7910    1.3160 H   0  0
   -2.5370    3.5800   -1.8730 H   0  0
   -4.0900   -1.5410   -0.0940 H   0  0
   -0.8690    3.0620   -0.2620 H   0  0
   -1.2890   -1.9040   -0.6230 H   0  0
   -0.9610   -1.2030    0.9350 H   0  0
    1.7990    2.1350   -1.6490 H   0  0
    1.4830    2.9780   -0.1560 H   0  0
    1.3070   -0.8670    1.0510 H   0  0
   -0.5720    0.0640   -2.6990 H   0  0
    1.1860   -0.1760   -2.6170 H   0  0
    0.0940   -1.5470   -2.4430 H   0  0
    2.5900    1.2710    1.1600 H   0  0
    3.6520    1.7130   -0.1520 H   0  0
    0.5100   -2.8520   -0.4690 H   0  0
    2.9360   -0.2890   -1.4450 H   0  0
    3.5760   -0.7400    0.1170 H   0  0
    2.1130   -3.5080   -1.8540 H   0  0
    4.1950   -2.8130   -0.1820 H   0  0
    0.4730   -3.7290    1.7890 H   0  0
    1.7110   -4.9810    3.5370 H   0  0
    6.1390   -4.5740    2.2480 H   0  0
    4.1860   -5.1510    3.4300 H   0  0
  1  2  1  0
  2  3  2  0
  2  4  1  0
  3  5  1  0
  4  6  2  0
  5  7  2  0
  7  8  1  0
  8  9  1  0
  8 10  1  0
  9 11  2  0
 10 12  2  0
 10 13  1  0
 12 14  1  0
 13 15  2  0
 14 16  1  0
 15 17  1  0
 16 18  1  0
 16 19  1  0
 17 20  1  0
 18 21  1  0
 18 22  1  0
 21 23  1  0
 21 24  1  0
 24 25  2  0
 24 26  1  0
 25 27  1  0
 26 28  2  0
 27 29  1  0
 27 30  2  0
  6  7  1  0
 11 12  1  0
 15 16  1  0
 20 22  1  0
 28 30  1  0
  3 31  1  0
  4 32  1  0
  5 33  1  0
  6 34  1  0
 11 35  1  0
 13 36  1  0
 14 37  1  0
 14 38  1  0
 17 39  1  0
 17 40  1  0
 18 41  1  0
 19 42  1  0
 19 43  1  0
 19 44  1  0
 20 45  1  0
 20 46  1  0
 21 47  1  0
 22 48  1  0
 22 49  1  0
 23 50  1  0
 25 51  1  0
 26 52  1  0
 28 53  1  0
 29 54  1  0
 30 55  1  0
M  END
> <Name>
CHEMBL309909

> <IC50 nM>
24.9

> <Molecule_ChEMBL_ID>
CHEMBL309909

> <Smiles>
C[C@]12Cc3cnn(-c4ccc(F)cc4)c3C=C1CCC[C@@H]2[C@@H](O)c1cccc(O)c1

$$$$
CHEMBL158091
  SciTegic08162514323D

 67 72  0  0  1  0            999 V2000
    3.1950    1.2850    0.0700 S   0  0
    1.9820   -0.0120   -0.3420 C   0  0  2  0  0  0
    3.3790    2.0250   -1.5780 C   0  0  1  0  0  0
    2.2890   -0.5650   -1.6090 O   0  0
    0.5080    0.4490   -0.2270 C   0  0  2  0  0  0
    2.1420   -1.1920    0.6170 C   0  0  2  0  0  0
    3.6090    3.5040   -1.4920 C   0  0
    4.6430    1.5510   -2.2870 C   0  0
    2.9650   -1.7930   -1.4490 C   0  0
    0.2190    0.0550    1.2360 C   0  0  3  0  0  0
   -0.4900   -0.2520   -1.1800 C   0  0
    0.4530    1.9690   -0.3870 C   0  0
    2.3980   -2.2760   -0.2520 O   0  0
    0.8200   -1.3500    1.3650 C   0  0
    2.9670    4.2150   -0.7540 O   0  0
    4.5840    3.9280   -2.2890 O   0  0
    4.9880    2.8140   -3.0820 C   0  0
    4.4570   -1.5430   -1.2540 C   0  0
    2.6430   -2.7290   -2.6060 C   0  0
   -1.2640    0.2360    1.6150 C   0  0  3  0  0  0
   -1.9830   -0.0570   -0.8110 C   0  0  1  0  0  0
   -2.2760   -0.4610    0.6620 C   0  0  1  0  0  0
   -1.5370    0.0080    3.1230 C   0  0
   -2.3540    1.2870   -1.0530 O   0  0
   -2.0760   -1.8240    0.6800 F   0  0
   -3.7310   -0.2340    1.1840 C   0  0  2  0  0  0
   -2.6540   -0.9980    3.4570 C   0  0  1  0  0  0
   -3.8690   -0.9200    2.5470 C   0  0
   -4.8070   -0.6930    0.2030 C   0  0
   -4.0160    1.2580    1.4160 C   0  0
   -2.1250   -2.2640    3.4080 F   0  0
   -5.0370   -1.4650    2.9490 C   0  0
   -5.9550   -1.2660    0.6150 C   0  0
   -6.1840   -1.5550    2.0370 C   0  0
   -7.2780   -1.8710    2.4390 O   0  0
    2.4980    1.8300   -2.1740 H   0  0
    2.9840   -1.0510    1.2790 H   0  0
    5.4260    1.3340   -1.5740 H   0  0
    4.4860    0.6820   -2.9100 H   0  0
    0.7930    0.7070    1.8850 H   0  0
   -0.3170    0.0780   -2.2050 H   0  0
   -0.2870   -1.3220   -1.1910 H   0  0
   -0.4980    2.3790   -0.0450 H   0  0
    0.5820    2.2520   -1.4320 H   0  0
    1.2460    2.4470    0.1890 H   0  0
    0.9710   -1.6350    2.3960 H   0  0
    0.2010   -2.1040    0.9080 H   0  0
    4.4300    2.8420   -4.0080 H   0  0
    6.0390    2.8960   -3.3170 H   0  0
    4.6460   -0.7890   -0.4920 H   0  0
    4.9160   -1.2010   -2.1840 H   0  0
    4.9650   -2.4590   -0.9490 H   0  0
    1.5660   -2.8770   -2.6920 H   0  0
    3.0230   -2.3280   -3.5450 H   0  0
    3.1010   -3.7050   -2.4490 H   0  0
   -1.4320    1.3050    1.4750 H   0  0
   -2.5760   -0.6600   -1.4940 H   0  0
   -0.6230   -0.2740    3.6460 H   0  0
   -1.8190    0.9670    3.5610 H   0  0
   -3.1940    1.2670   -1.5390 H   0  0
   -2.9710   -0.8200    4.4860 H   0  0
   -4.6640   -0.5590   -0.8570 H   0  0
   -4.9940    1.4180    1.8670 H   0  0
   -3.9880    1.8070    0.4750 H   0  0
   -3.2680    1.6930    2.0780 H   0  0
   -5.1330   -1.8610    3.9490 H   0  0
   -6.7150   -1.5200   -0.1090 H   0  0
  2  1  1  0
  3  1  1  0
  2  4  1  0
  2  5  1  0
  2  6  1  0
  3  7  1  0
  3  8  1  0
  4  9  1  0
  5 10  1  0
  5 11  1  0
  5 12  1  0
  6 13  1  0
  6 14  1  0
  7 15  2  0
  7 16  1  0
  8 17  1  0
  9 18  1  0
  9 19  1  0
 10 20  1  0
 11 21  1  0
 20 22  1  0
 20 23  1  0
 21 24  1  0
 22 25  1  0
 22 26  1  0
 23 27  1  0
 26 28  1  0
 26 29  1  0
 26 30  1  0
 27 31  1  0
 28 32  2  0
 29 33  2  0
 32 34  1  0
 34 35  2  0
  9 13  1  0
 10 14  1  0
 16 17  1  0
 21 22  1  0
 27 28  1  0
 33 34  1  0
  3 36  1  0
  6 37  1  0
  8 38  1  0
  8 39  1  0
 10 40  1  0
 11 41  1  0
 11 42  1  0
 12 43  1  0
 12 44  1  0
 12 45  1  0
 14 46  1  0
 14 47  1  0
 17 48  1  0
 17 49  1  0
 18 50  1  0
 18 51  1  0
 18 52  1  0
 19 53  1  0
 19 54  1  0
 19 55  1  0
 20 56  1  0
 21 57  1  0
 23 58  1  0
 23 59  1  0
 24 60  1  0
 27 61  1  0
 29 62  1  0
 30 63  1  0
 30 64  1  0
 30 65  1  0
 32 66  1  0
 33 67  1  0
M  END
> <Name>
CHEMBL158091

> <IC50 nM>
1.4

> <Molecule_ChEMBL_ID>
CHEMBL158091

> <Smiles>
CC1(C)O[C@@H]2CC3C4C[C@H](F)C5=CC(=O)C=C[C@]5(C)[C@@]4(F)[C@@H](O)C[C@]3(C)[C@]2(S[C@@H]2CCOC2=O)O1

$$$$
CHEMBL3945990
  SciTegic08162514323D

 61 65  0  0  1  0            999 V2000
   -1.8670   -4.2850    1.0080 S   0  0
   -2.4570   -5.5510    0.6060 O   0  0
   -1.6620   -4.1820    2.4410 O   0  0
   -0.2810   -4.2460    0.2910 N   0  0
   -2.9260   -3.0120    0.5160 C   0  0
    0.5940   -3.1330    0.6310 C   0  0  2  0  0  0
   -3.5310   -2.1870    1.4820 C   0  0
   -3.1800   -2.7970   -0.8520 C   0  0
   -0.0610   -1.7690    0.3750 C   0  0
    1.8590   -3.0900   -0.2520 C   0  0
   -4.3930   -1.1520    1.0820 C   0  0
   -3.2680   -2.4080    2.9300 C   0  0
   -4.0410   -1.7600   -1.2500 C   0  0
   -2.5430   -3.6640   -1.8790 C   0  0
    1.0630   -0.9020    0.0660 N   0  0
    2.2990   -1.6270   -0.1580 C   0  0
   -4.6490   -0.9370   -0.2850 C   0  0
    0.9650    0.4420   -0.0040 C   0  0
   -5.5590    0.1600   -0.7090 C   0  0
    2.1970    1.1660   -0.1110 C   0  0
   -0.2810    1.1210    0.0250 C   0  0
    2.1210    2.5490   -0.1860 C   0  0
    3.4730    0.6020   -0.1480 C   0  0
   -0.3070    2.5370   -0.0530 C   0  0
    3.4240    2.9160   -0.2750 N   0  0
    0.9020    3.2680   -0.1580 C   0  0
    4.1880    1.7740   -0.2540 N   0  0
    3.9080    4.1820   -0.3730 C   0  0
    3.3790    5.2050    0.4360 C   0  0
    4.9430    4.4750   -1.2830 C   0  0
    3.8810    6.5140    0.3360 C   0  0
    5.4430    5.7830   -1.3830 C   0  0
    4.9140    6.8050   -0.5740 C   0  0
    5.3890    8.0450   -0.6680 F   0  0
   -0.3670   -4.2890   -0.7340 H   0  0
    0.8830   -3.2110    1.6700 H   0  0
   -0.7320   -1.7950   -0.4710 H   0  0
   -0.6070   -1.4200    1.2400 H   0  0
    1.6190   -3.3360   -1.2770 H   0  0
    2.6250   -3.7750    0.0840 H   0  0
   -4.8590   -0.5190    1.8240 H   0  0
   -3.4770   -3.4220    3.2750 H   0  0
   -3.8790   -1.7250    3.5200 H   0  0
   -2.2210   -2.1910    3.1450 H   0  0
   -4.2380   -1.5960   -2.3010 H   0  0
   -3.1190   -3.7660   -2.7990 H   0  0
   -2.3910   -4.6620   -1.4690 H   0  0
   -1.5660   -3.2580   -2.1410 H   0  0
    2.7990   -1.2990   -1.0590 H   0  0
    2.9650   -1.4750    0.6820 H   0  0
   -5.6310    0.1720   -1.7950 H   0  0
   -6.5250    0.0350   -0.2230 H   0  0
   -5.1470    1.1170   -0.3910 H   0  0
   -1.2090    0.5740    0.1070 H   0  0
    3.8480   -0.4140   -0.1130 H   0  0
   -1.2520    3.0590   -0.0310 H   0  0
    0.8870    4.3480   -0.2190 H   0  0
    2.5840    5.0020    1.1410 H   0  0
    5.3650    3.7030   -1.9140 H   0  0
    3.4710    7.2950    0.9590 H   0  0
    6.2380    6.0020   -2.0820 H   0  0
  1  2  2  0
  1  3  2  0
  1  4  1  0
  1  5  1  0
  6  4  1  0
  5  7  2  0
  5  8  1  0
  6  9  1  0
  6 10  1  0
  7 11  1  0
  7 12  1  0
  8 13  2  0
  8 14  1  0
  9 15  1  0
 10 16  1  0
 11 17  2  0
 15 18  1  0
 17 19  1  0
 18 20  2  0
 18 21  1  0
 20 22  1  0
 20 23  1  0
 21 24  2  0
 22 25  1  0
 22 26  2  0
 23 27  2  0
 25 28  1  0
 28 29  2  0
 28 30  1  0
 29 31  1  0
 30 32  2  0
 31 33  2  0
 33 34  1  0
 13 17  1  0
 15 16  1  0
 24 26  1  0
 25 27  1  0
 32 33  1  0
  4 35  1  0
  6 36  1  0
  9 37  1  0
  9 38  1  0
 10 39  1  0
 10 40  1  0
 11 41  1  0
 12 42  1  0
 12 43  1  0
 12 44  1  0
 13 45  1  0
 14 46  1  0
 14 47  1  0
 14 48  1  0
 16 49  1  0
 16 50  1  0
 19 51  1  0
 19 52  1  0
 19 53  1  0
 21 54  1  0
 23 55  1  0
 24 56  1  0
 26 57  1  0
 29 58  1  0
 30 59  1  0
 31 60  1  0
 32 61  1  0
M  END
> <Name>
CHEMBL3945990

> <IC50 nM>
11

> <Molecule_ChEMBL_ID>
CHEMBL3945990

> <Smiles>
Cc1cc(C)c(S(=O)(=O)N[C@H]2CCN(c3cccc4c3cnn4-c3ccc(F)cc3)C2)c(C)c1

$$$$
CHEMBL243232
  SciTegic08162514323D

 44 46  0  0  1  0            999 V2000
   -0.5510   -4.3670    1.8380 Cl  0  0
    0.9340   -4.8440    1.1170 C   0  0
    1.6130   -3.9820    0.2320 C   0  0
    1.4710   -6.1090    1.4160 C   0  0
    0.9570   -2.4220   -0.1350 S   0  0
    2.8300   -4.3890   -0.3520 C   0  0
    2.6860   -6.5160    0.8360 C   0  0
   -0.4900   -2.4960   -0.0180 O   0  0
    1.4020   -2.0410   -1.4630 O   0  0
    1.4590   -1.1390    0.9280 N   0  0
    3.6740   -3.3560   -1.4320 Cl  0  0
    3.3630   -5.6560   -0.0470 C   0  0
    3.3400   -8.0570    1.2050 Cl  0  0
    0.8220    0.1580    0.7790 C   0  0  2  0  0  0
    1.0760    0.7250   -0.6170 C   0  0
    1.2730    1.1050    1.8930 C   0  0
    0.6460    2.1740   -0.7090 C   0  0
   -0.6110    2.6660   -0.7440 C   0  0
    1.4940    3.2990   -0.7740 C   0  0
   -0.6370    4.0350   -0.8280 C   0  0
   -1.8130    1.9120   -0.7050 C   0  0
    0.6840    4.4590   -0.8480 N   0  0
   -1.8540    4.7560   -0.8790 C   0  0
   -3.0490    2.6070   -0.7520 C   0  0
   -3.0680    4.0250   -0.8400 C   0  0
   -4.2010    1.9220   -0.7150 O   0  0
   -5.4140    2.6580   -0.7340 C   0  0
    0.9510   -6.7720    2.0940 H   0  0
    1.3520   -1.4410    1.9060 H   0  0
    4.2970   -5.9730   -0.4940 H   0  0
   -0.2290   -0.1070    0.9020 H   0  0
    2.1310    0.6410   -0.8810 H   0  0
    0.5490    0.1410   -1.3710 H   0  0
    0.7230    2.0470    1.8730 H   0  0
    2.3320    1.3380    1.7930 H   0  0
    1.1210    0.6500    2.8710 H   0  0
    2.5760    3.3160   -0.7700 H   0  0
   -1.7930    0.8340   -0.6390 H   0  0
    1.0060    5.3970   -0.9040 H   0  0
   -1.8610    5.8340   -0.9450 H   0  0
   -4.0120    4.5510   -0.8770 H   0  0
   -5.4510    3.2810    0.1600 H   0  0
   -5.4830    3.1820   -1.6880 H   0  0
   -6.2440    1.9530   -0.6820 H   0  0
  1  2  1  0
  2  3  2  0
  2  4  1  0
  3  5  1  0
  3  6  1  0
  4  7  2  0
  5  8  2  0
  5  9  2  0
  5 10  1  0
  6 11  1  0
  6 12  2  0
  7 13  1  0
 10 14  1  0
 14 15  1  0
 14 16  1  0
 15 17  1  0
 17 18  1  0
 17 19  2  0
 18 20  1  0
 18 21  2  0
 19 22  1  0
 20 23  2  0
 21 24  1  0
 23 25  1  0
 24 26  1  0
 26 27  1  0
  7 12  1  0
 20 22  1  0
 24 25  2  0
  4 28  1  0
 10 29  1  0
 12 30  1  0
 14 31  1  0
 15 32  1  0
 15 33  1  0
 16 34  1  0
 16 35  1  0
 16 36  1  0
 19 37  1  0
 21 38  1  0
 22 39  1  0
 23 40  1  0
 25 41  1  0
 27 42  1  0
 27 43  1  0
 27 44  1  0
M  END
> <Name>
CHEMBL243232

> <IC50 nM>
2000

> <Molecule_ChEMBL_ID>
CHEMBL243232

> <Smiles>
COc1ccc2[nH]cc(CC(C)NS(=O)(=O)c3c(Cl)cc(Cl)cc3Cl)c2c1

$$$$
CHEMBL387607
  SciTegic08162514323D

 43 45  0  0  1  0            999 V2000
   -0.4100   -2.7460    0.5570 S   0  0
   -1.7890   -2.3570    0.7970 O   0  0
   -0.2600   -4.1540    0.2360 O   0  0
    0.0920   -1.8750   -0.8650 N   0  0
    0.5040   -2.4100    1.9810 C   0  0
   -0.1000   -0.4360   -0.8850 C   0  0  2  0  0  0
    1.9080   -2.4570    1.9380 C   0  0
   -0.1560   -2.0940    3.1800 C   0  0
    0.0840    0.1090   -2.3030 C   0  0
    0.8180    0.2420    0.1310 C   0  0
    2.6540   -2.1840    3.1000 C   0  0
    0.5900   -1.8200    4.3400 C   0  0
   -0.3460    1.5590   -2.3950 C   0  0
    1.9940   -1.8670    4.2990 C   0  0
    4.1390   -2.2320    3.0570 C   0  0
   -1.6080    2.0510   -2.4300 C   0  0
    0.4980    2.6840   -2.4590 C   0  0
   -1.6310    3.4200   -2.5140 C   0  0
   -2.8050    1.2950   -2.3890 C   0  0
   -0.3130    3.8440   -2.5330 N   0  0
   -2.8500    4.1370   -2.5640 C   0  0
   -4.0430    1.9880   -2.4370 C   0  0
   -4.0650    3.4060   -2.5250 C   0  0
    1.0860   -2.0700   -1.0530 H   0  0
   -1.1430   -0.3550   -0.5740 H   0  0
    2.4080   -2.7010    1.0140 H   0  0
   -1.2370   -2.0590    3.2130 H   0  0
   -0.4850   -0.4840   -3.0200 H   0  0
    1.1230    0.0180   -2.6190 H   0  0
    0.5620   -0.0610    1.1470 H   0  0
    1.8610   -0.0120   -0.0620 H   0  0
    0.7240    1.3280    0.0740 H   0  0
    0.0840   -1.5760    5.2620 H   0  0
    2.5620   -1.6560    5.1950 H   0  0
    4.6210   -2.0060    4.0080 H   0  0
    4.5040   -1.5180    2.3200 H   0  0
    4.4610   -3.2270    2.7480 H   0  0
    1.5800    2.7010   -2.4550 H   0  0
   -2.7870    0.2170   -2.3240 H   0  0
    0.0100    4.7810   -2.5900 H   0  0
   -2.8600    5.2150   -2.6310 H   0  0
   -4.9690    1.4360   -2.4080 H   0  0
   -5.0100    3.9280   -2.5610 H   0  0
  1  2  2  0
  1  3  2  0
  1  4  1  0
  1  5  1  0
  4  6  1  0
  5  7  2  0
  5  8  1  0
  6  9  1  0
  6 10  1  0
  7 11  1  0
  8 12  2  0
  9 13  1  0
 11 14  2  0
 11 15  1  0
 13 16  1  0
 13 17  2  0
 16 18  1  0
 16 19  2  0
 17 20  1  0
 18 21  2  0
 19 22  1  0
 21 23  1  0
 12 14  1  0
 18 20  1  0
 22 23  2  0
  4 24  1  0
  6 25  1  0
  7 26  1  0
  8 27  1  0
  9 28  1  0
  9 29  1  0
 10 30  1  0
 10 31  1  0
 10 32  1  0
 12 33  1  0
 14 34  1  0
 15 35  1  0
 15 36  1  0
 15 37  1  0
 17 38  1  0
 19 39  1  0
 20 40  1  0
 21 41  1  0
 22 42  1  0
 23 43  1  0
M  END
> <Name>
CHEMBL387607

> <IC50 nM>
10000

> <Molecule_ChEMBL_ID>
CHEMBL387607

> <Smiles>
Cc1cccc(S(=O)(=O)NC(C)Cc2c[nH]c3ccccc23)c1

$$$$
CHEMBL3915997
  SciTegic08162514323D

 52 55  0  0  1  0            999 V2000
    6.0140    5.8360   -1.5880 F   0  0
    5.5260    4.6010   -1.4920 C   0  0
    6.0450    3.5760   -2.3010 C   0  0
    4.4900    4.3220   -0.5840 C   0  0
    5.5310    2.2710   -2.2010 C   0  0
    3.9750    3.0190   -0.4820 C   0  0
    4.4940    1.9900   -1.2910 C   0  0
    3.9960    0.7280   -1.1930 N   0  0
    4.7460   -0.4260   -1.1700 N   0  0
    2.6900    0.3750   -1.1030 C   0  0
    4.0160   -1.5920   -1.0640 C   0  0
    2.7640   -1.0040   -1.0290 C   0  0
    1.4670    1.0840   -1.0760 C   0  0
    1.5660   -1.7600   -0.9220 C   0  0
    0.2700    0.3360   -0.9690 C   0  0
    0.3180   -1.0840   -0.8930 C   0  0
   -0.8180   -1.7850   -0.7910 O   0  0
   -1.9570   -1.1370   -0.2400 C   0  0  2  0  0  0
   -1.6130   -0.5860    1.0980 C   0  0
   -3.1190   -2.1270   -0.1600 C   0  0  1  0  0  0
   -1.9470    0.7420    1.4180 C   0  0
   -0.9570   -1.3930    2.0450 C   0  0
   -4.3380   -1.4690    0.3280 N   0  0
   -3.3770   -2.8420   -1.4880 C   0  0
   -1.6230    1.2640    2.6820 C   0  0
   -0.6350   -0.8710    3.3090 C   0  0
   -5.2680   -2.2010    1.0140 C   0  0
   -0.9670    0.4570    3.6270 C   0  0
   -5.0880   -3.3810    1.2130 O   0  0
   -6.5100   -1.5120    1.5080 C   0  0
   -7.2720   -2.4510    2.1520 F   0  0
   -7.2210   -0.9920    0.4550 F   0  0
   -6.1860   -0.5060    2.3810 F   0  0
    6.8400    3.7850   -3.0020 H   0  0
    4.0880    5.1070    0.0390 H   0  0
    5.9430    1.4960   -2.8320 H   0  0
    3.1780    2.8240    0.2230 H   0  0
    4.3690   -2.6150   -1.0270 H   0  0
    1.4430    2.1620   -1.1370 H   0  0
    1.5940   -2.8380   -0.8630 H   0  0
   -0.6820    0.8460   -0.9470 H   0  0
   -2.2400   -0.3220   -0.9060 H   0  0
   -2.8710   -2.9590    0.4980 H   0  0
   -2.4510    1.3670    0.6950 H   0  0
   -0.6990   -2.4140    1.8050 H   0  0
   -4.4880   -0.4940    0.1640 H   0  0
   -4.1820   -3.5690   -1.3830 H   0  0
   -3.6410   -2.1270   -2.2660 H   0  0
   -2.4860   -3.3770   -1.8160 H   0  0
   -1.8790    2.2830    2.9280 H   0  0
   -0.1310   -1.4920    4.0350 H   0  0
   -0.7190    0.8570    4.6000 H   0  0
  1  2  1  0
  2  3  2  0
  2  4  1  0
  3  5  1  0
  4  6  2  0
  5  7  2  0
  7  8  1  0
  8  9  1  0
  8 10  1  0
  9 11  2  0
 10 12  1  0
 10 13  2  0
 12 14  2  0
 13 15  1  0
 14 16  1  0
 16 17  1  0
 18 17  1  0
 18 19  1  0
 18 20  1  0
 19 21  2  0
 19 22  1  0
 20 23  1  0
 20 24  1  0
 21 25  1  0
 22 26  2  0
 23 27  1  0
 25 28  2  0
 27 29  2  0
 27 30  1  0
 30 31  1  0
 30 32  1  0
 30 33  1  0
  6  7  1  0
 11 12  1  0
 15 16  2  0
 26 28  1  0
  3 34  1  0
  4 35  1  0
  5 36  1  0
  6 37  1  0
 11 38  1  0
 13 39  1  0
 14 40  1  0
 15 41  1  0
 18 42  1  0
 20 43  1  0
 21 44  1  0
 22 45  1  0
 23 46  1  0
 24 47  1  0
 24 48  1  0
 24 49  1  0
 25 50  1  0
 26 51  1  0
 28 52  1  0
M  END
> <Name>
CHEMBL3915997

> <IC50 nM>
0.13

> <Molecule_ChEMBL_ID>
CHEMBL3915997

> <Smiles>
C[C@H](NC(=O)C(F)(F)F)[C@H](Oc1ccc2c(cnn2-c2ccc(F)cc2)c1)c1ccccc1

$$$$
CHEMBL233038
  SciTegic08162514323D

 52 54  0  0  1  0            999 V2000
    2.3500   -2.5740    0.4470 S   0  0
    2.4100   -3.9840    0.1000 O   0  0
    3.2990   -2.1970    1.4800 O   0  0
    2.8260   -1.7070   -0.9820 N   0  0
    0.7580   -2.2260    1.0200 C   0  0
    2.6230   -0.2670   -1.0080 C   0  0  2  0  0  0
    0.5350   -2.0250    2.3910 C   0  0
   -0.3100   -2.1420    0.1090 C   0  0
    2.7990    0.2740   -2.4260 C   0  0
    3.5410    0.4180    0.0040 C   0  0
   -0.7600   -1.7400    2.8570 C   0  0
   -1.6050   -1.8590    0.5760 C   0  0
    2.3690    1.7250   -2.5180 C   0  0
   -1.8320   -1.6580    1.9490 C   0  0
    1.1090    2.2150   -2.5550 C   0  0
    3.2150    2.8480   -2.5820 C   0  0
   -3.2010   -1.3570    2.4410 C   0  0
    1.0840    3.5840   -2.6390 C   0  0
   -0.0900    1.4590   -2.5140 C   0  0
    2.4020    4.0080   -2.6580 N   0  0
   -3.0160    0.1600    2.3690 C   0  0
   -3.4080   -1.8590    3.8690 C   0  0
   -4.2710   -1.8670    1.4750 C   0  0
   -0.1350    4.3010   -2.6880 C   0  0
   -1.3260    2.1520   -2.5610 C   0  0
   -1.3500    3.5700   -2.6490 C   0  0
    3.8180   -1.8960   -1.1860 H   0  0
    1.5820   -0.1950   -0.6930 H   0  0
    1.3580   -2.0880    3.0900 H   0  0
   -0.1370   -2.2990   -0.9450 H   0  0
    2.2290   -0.3200   -3.1390 H   0  0
    3.8380    0.1820   -2.7480 H   0  0
    3.4320    1.5020   -0.0490 H   0  0
    3.3150    0.0860    1.0180 H   0  0
    4.5860    0.1800   -0.1990 H   0  0
   -0.9260   -1.5860    3.9120 H   0  0
   -2.4240   -1.7970   -0.1270 H   0  0
    4.2970    2.8650   -2.5780 H   0  0
   -0.0720    0.3810   -2.4470 H   0  0
    2.7250    4.9470   -2.7130 H   0  0
   -2.7770    0.4920    1.3590 H   0  0
   -2.2070    0.4810    3.0270 H   0  0
   -3.9240    0.6740    2.6840 H   0  0
   -3.0290   -2.8730    4.0040 H   0  0
   -4.4690   -1.8630    4.1270 H   0  0
   -2.8960   -1.2150    4.5840 H   0  0
   -4.1050   -2.9080    1.1970 H   0  0
   -4.2770   -1.2750    0.5590 H   0  0
   -5.2620   -1.7950    1.9240 H   0  0
   -0.1430    5.3790   -2.7540 H   0  0
   -2.2540    1.6000   -2.5310 H   0  0
   -2.2950    4.0920   -2.6840 H   0  0
  1  2  2  0
  1  3  2  0
  1  4  1  0
  1  5  1  0
  4  6  1  0
  5  7  2  0
  5  8  1  0
  6  9  1  0
  6 10  1  0
  7 11  1  0
  8 12  2  0
  9 13  1  0
 11 14  2  0
 13 15  1  0
 13 16  2  0
 14 17  1  0
 15 18  1  0
 15 19  2  0
 16 20  1  0
 17 21  1  0
 17 22  1  0
 17 23  1  0
 18 24  2  0
 19 25  1  0
 24 26  1  0
 12 14  1  0
 18 20  1  0
 25 26  2  0
  4 27  1  0
  6 28  1  0
  7 29  1  0
  8 30  1  0
  9 31  1  0
  9 32  1  0
 10 33  1  0
 10 34  1  0
 10 35  1  0
 11 36  1  0
 12 37  1  0
 16 38  1  0
 19 39  1  0
 20 40  1  0
 21 41  1  0
 21 42  1  0
 21 43  1  0
 22 44  1  0
 22 45  1  0
 22 46  1  0
 23 47  1  0
 23 48  1  0
 23 49  1  0
 24 50  1  0
 25 51  1  0
 26 52  1  0
M  END
> <Name>
CHEMBL233038

> <IC50 nM>
735

> <Molecule_ChEMBL_ID>
CHEMBL233038

> <Smiles>
CC(Cc1c[nH]c2ccccc12)NS(=O)(=O)c1ccc(C(C)(C)C)cc1

$$$$
CHEMBL237843
  SciTegic08162514323D

 54 56  0  0  1  0            999 V2000
   -0.2010   -0.8730   -4.0350 F   0  0
    0.2420   -1.3110   -2.8580 C   0  0
   -0.6700   -1.6050   -1.8280 C   0  0
    1.6210   -1.4790   -2.6450 C   0  0
   -0.2010   -2.0680   -0.5860 C   0  0
    2.0880   -1.9410   -1.4020 C   0  0
    1.1800   -2.2360   -0.3690 C   0  0
   -1.1740   -2.3770    0.4960 C   0  0
    1.6290   -2.6700    0.7910 O   0  0
   -0.6450   -1.2950    1.4370 C   0  0
   -0.9730   -3.7890    1.0490 C   0  0
   -2.6130   -2.1170    0.0510 C   0  0
    2.4140   -3.8540    0.8030 C   0  0
   -1.2660    0.0760    1.1700 C   0  0  1  0  0  0
   -2.6580   -0.0250    1.3690 O   0  0
   -0.6990    1.0250    2.2250 C   0  0
   -1.0220    0.5660   -0.2580 C   0  0
    0.6440    1.1950    2.0120 F   0  0
   -0.8990    0.4940    3.4730 F   0  0
   -1.3320    2.2380    2.1370 F   0  0
   -0.8520    2.0310   -0.3070 C   0  0
    0.4390    2.6350   -0.3420 C   0  0
   -2.0100    2.8460   -0.3200 C   0  0
    0.5490    4.0630   -0.3870 C   0  0
    1.6210    1.8460   -0.3300 C   0  0
   -1.8950    4.2540   -0.3690 C   0  0
   -0.6190    4.8650   -0.4000 C   0  0
    1.8260    4.6760   -0.4180 C   0  0
    2.8910    2.4690   -0.3630 C   0  0
    2.9940    3.8770   -0.4060 C   0  0
   -1.7290   -1.4770   -1.9940 H   0  0
    2.3240   -1.2540   -3.4320 H   0  0
    3.1480   -2.0680   -1.2420 H   0  0
    0.4430   -1.2400    1.3890 H   0  0
   -0.7850   -1.5860    2.4790 H   0  0
   -0.7930   -4.5140    0.2540 H   0  0
   -1.8540   -4.1150    1.6040 H   0  0
   -0.1210   -3.8200    1.7270 H   0  0
   -3.0100   -2.9410   -0.5450 H   0  0
   -2.6720   -1.2110   -0.5530 H   0  0
   -3.2680   -1.9860    0.9140 H   0  0
    2.4100   -4.2560    1.8160 H   0  0
    2.0430   -4.5180    0.0210 H   0  0
    3.4410   -3.5860    0.5550 H   0  0
   -2.9340    0.7620    1.8670 H   0  0
   -1.8440    0.2730   -0.9120 H   0  0
   -0.1430    0.0840   -0.6860 H   0  0
   -2.9900    2.3970   -0.2950 H   0  0
    1.5780    0.7680   -0.2990 H   0  0
   -2.7830    4.8670   -0.3790 H   0  0
   -0.5550    5.9430   -0.4380 H   0  0
    1.9300    5.7520   -0.4510 H   0  0
    3.7850    1.8630   -0.3570 H   0  0
    3.9670    4.3460   -0.4300 H   0  0
  1  2  1  0
  2  3  2  0
  2  4  1  0
  3  5  1  0
  4  6  2  0
  5  7  2  0
  5  8  1  0
  7  9  1  0
  8 10  1  0
  8 11  1  0
  8 12  1  0
  9 13  1  0
 10 14  1  0
 14 15  1  0
 14 16  1  0
 14 17  1  0
 16 18  1  0
 16 19  1  0
 16 20  1  0
 17 21  1  0
 21 22  2  0
 21 23  1  0
 22 24  1  0
 22 25  1  0
 23 26  2  0
 24 27  2  0
 24 28  1  0
 25 29  2  0
 28 30  2  0
  6  7  1  0
 26 27  1  0
 29 30  1  0
  3 31  1  0
  4 32  1  0
  6 33  1  0
 10 34  1  0
 10 35  1  0
 11 36  1  0
 11 37  1  0
 11 38  1  0
 12 39  1  0
 12 40  1  0
 12 41  1  0
 13 42  1  0
 13 43  1  0
 13 44  1  0
 15 45  1  0
 17 46  1  0
 17 47  1  0
 23 48  1  0
 25 49  1  0
 26 50  1  0
 27 51  1  0
 28 52  1  0
 29 53  1  0
 30 54  1  0
M  END
> <Name>
CHEMBL237843

> <IC50 nM>
120

> <Molecule_ChEMBL_ID>
CHEMBL237843

> <Smiles>
COc1ccc(F)cc1C(C)(C)CC(O)(Cc1cccc2ccccc12)C(F)(F)F

$$$$
CHEMBL235480
  SciTegic08162514323D

 48 49  0  0  1  0            999 V2000
   -3.1460    2.4650    3.2130 Cl  0  0
   -1.6000    1.8030    2.8830 C   0  0
   -0.4730    2.6450    2.8110 C   0  0
   -1.4530    0.4180    2.6860 C   0  0
    0.7970    2.1000    2.5370 C   0  0
   -0.1860   -0.1250    2.4120 C   0  0
    2.1700    3.1250    2.4490 Cl  0  0
    0.9380    0.7150    2.3380 C   0  0
   -0.0350   -1.5900    2.2010 C   0  0
    0.9040   -1.8950    1.0330 C   0  0  2  0  0  0
    0.6310   -3.2010    0.5800 O   0  0
    2.3790   -1.8240    1.4280 C   0  0
    0.7190   -0.9340   -0.1410 C   0  0
    3.0020   -2.9940    1.0800 F   0  0
    2.4810   -1.6370    2.7830 F   0  0
    2.9770   -0.7750    0.7750 F   0  0
   -0.6460   -1.0760   -0.8110 C   0  0
   -0.2660   -0.2770   -2.0060 C   0  0
   -0.9750   -2.5220   -1.1820 C   0  0
   -1.7680   -0.4020   -0.0180 C   0  0
   -0.1270    1.1230   -1.9120 C   0  0
   -0.0450   -0.9260   -3.2350 C   0  0
   -0.3320    1.7400   -0.7680 O   0  0
    0.2340    1.8630   -3.0510 C   0  0
    0.3140   -0.1800   -4.3710 C   0  0
   -0.0210    3.1250   -0.6910 C   0  0
    0.4550    1.2150   -4.2770 C   0  0
    0.5230   -0.7950   -5.5330 F   0  0
   -0.5820    3.7090    2.9630 H   0  0
   -2.3140   -0.2340    2.7420 H   0  0
    1.9100    0.2910    2.1270 H   0  0
    0.3280   -2.0530    3.1190 H   0  0
   -1.0160   -2.0350    2.0350 H   0  0
    0.1270   -3.6490    1.2770 H   0  0
    0.8890    0.0960    0.1760 H   0  0
    1.5220   -1.0550   -0.8690 H   0  0
   -1.7090   -2.5800   -1.9840 H   0  0
   -1.3770   -3.0590   -0.3220 H   0  0
   -0.0780   -3.0470   -1.5120 H   0  0
   -2.5940   -0.0980   -0.6600 H   0  0
   -1.3960    0.4860    0.4920 H   0  0
   -2.1640   -1.0800    0.7380 H   0  0
   -0.1520   -1.9980   -3.3070 H   0  0
    0.3420    2.9360   -2.9850 H   0  0
   -0.2440    3.4710    0.3180 H   0  0
    1.0040    3.2640   -1.0330 H   0  0
   -0.6780    3.6600   -1.3790 H   0  0
    0.7310    1.7930   -5.1490 H   0  0
  1  2  1  0
  2  3  2  0
  2  4  1  0
  3  5  1  0
  4  6  2  0
  5  7  1  0
  5  8  2  0
  6  9  1  0
  9 10  1  0
 10 11  1  0
 10 12  1  0
 10 13  1  0
 12 14  1  0
 12 15  1  0
 12 16  1  0
 13 17  1  0
 17 18  1  0
 17 19  1  0
 17 20  1  0
 18 21  2  0
 18 22  1  0
 21 23  1  0
 21 24  1  0
 22 25  2  0
 23 26  1  0
 24 27  2  0
 25 28  1  0
  6  8  1  0
 25 27  1  0
  3 29  1  0
  4 30  1  0
  8 31  1  0
  9 32  1  0
  9 33  1  0
 11 34  1  0
 13 35  1  0
 13 36  1  0
 19 37  1  0
 19 38  1  0
 19 39  1  0
 20 40  1  0
 20 41  1  0
 20 42  1  0
 22 43  1  0
 24 44  1  0
 26 45  1  0
 26 46  1  0
 26 47  1  0
 27 48  1  0
M  END
> <Name>
CHEMBL235480

> <IC50 nM>
60

> <Molecule_ChEMBL_ID>
CHEMBL235480

> <Smiles>
COc1ccc(F)cc1C(C)(C)CC(O)(Cc1cc(Cl)cc(Cl)c1)C(F)(F)F

$$$$
CHEMBL237377
  SciTegic08162514323D

 48 49  0  0  1  0            999 V2000
   -0.7790    1.0800    2.5330 Cl  0  0
    0.9380    1.0920    2.4570 C   0  0
    1.6700   -0.0940    2.2170 C   0  0
    1.6210    2.3090    2.6390 C   0  0
    3.0760   -0.0490    2.1640 C   0  0
    0.9860   -1.4000    2.0140 C   0  0
    3.0240    2.3480    2.5860 C   0  0
    3.7540    1.1700    2.3500 C   0  0
    0.9320   -1.7850    0.5350 C   0  0  2  0  0  0
    5.4670    1.2170    2.2870 Cl  0  0
    0.1430   -2.9470    0.4100 O   0  0
    2.3130   -2.0780   -0.0490 C   0  0
    0.3130   -0.6910   -0.3360 C   0  0
    2.1740   -2.7340   -1.2460 F   0  0
    3.0200   -2.8650    0.8220 F   0  0
    2.9850   -0.9000   -0.2480 F   0  0
   -0.9220   -1.1720   -1.0980 C   0  0
   -1.1830    0.1480   -1.7280 C   0  0
   -0.5940   -2.2400   -2.1430 C   0  0
   -2.0640   -1.5880   -0.1700 C   0  0
   -1.9690    1.1110   -1.0660 C   0  0
   -0.6410    0.4340   -2.9940 C   0  0
   -2.4820    0.8550    0.1210 O   0  0
   -2.2050    2.3570   -1.6760 C   0  0
   -0.8810    1.6800   -3.6020 C   0  0
   -3.4060    1.7890    0.6620 C   0  0
   -1.6640    2.6410   -2.9390 C   0  0
   -0.3670    1.9490   -4.7990 F   0  0
    1.0760    3.2250    2.8220 H   0  0
    3.6310   -0.9570    1.9790 H   0  0
    1.4960   -2.1700    2.5940 H   0  0
   -0.0170   -1.3560    2.4380 H   0  0
    3.5310    3.2910    2.7290 H   0  0
    0.1080   -3.3630    1.2850 H   0  0
    0.0780    0.1890    0.2600 H   0  0
    1.0530   -0.2810   -1.0210 H   0  0
   -1.2790   -2.2050   -2.9880 H   0  0
   -0.6520   -3.2360   -1.7050 H   0  0
    0.4180   -2.1040   -2.5270 H   0  0
   -3.0270   -1.2210   -0.5210 H   0  0
   -1.9060   -1.1950    0.8360 H   0  0
   -2.1270   -2.6740   -0.0980 H   0  0
   -0.0370   -0.3050   -3.5040 H   0  0
   -2.8070    3.0980   -1.1700 H   0  0
   -3.8670    1.3400    1.5430 H   0  0
   -2.8870    2.7340    0.8180 H   0  0
   -4.1910    1.9570   -0.0740 H   0  0
   -1.8510    3.6000   -3.4000 H   0  0
  1  2  1  0
  2  3  2  0
  2  4  1  0
  3  5  1  0
  3  6  1  0
  4  7  2  0
  5  8  2  0
  6  9  1  0
  8 10  1  0
  9 11  1  0
  9 12  1  0
  9 13  1  0
 12 14  1  0
 12 15  1  0
 12 16  1  0
 13 17  1  0
 17 18  1  0
 17 19  1  0
 17 20  1  0
 18 21  2  0
 18 22  1  0
 21 23  1  0
 21 24  1  0
 22 25  2  0
 23 26  1  0
 24 27  2  0
 25 28  1  0
  7  8  1  0
 25 27  1  0
  4 29  1  0
  5 30  1  0
  6 31  1  0
  6 32  1  0
  7 33  1  0
 11 34  1  0
 13 35  1  0
 13 36  1  0
 19 37  1  0
 19 38  1  0
 19 39  1  0
 20 40  1  0
 20 41  1  0
 20 42  1  0
 22 43  1  0
 24 44  1  0
 26 45  1  0
 26 46  1  0
 26 47  1  0
 27 48  1  0
M  END
> <Name>
CHEMBL237377

> <IC50 nM>
45

> <Molecule_ChEMBL_ID>
CHEMBL237377

> <Smiles>
COc1ccc(F)cc1C(C)(C)CC(O)(Cc1cc(Cl)ccc1Cl)C(F)(F)F

$$$$
CHEMBL388363
  SciTegic08162514323D

 54 56  0  0  1  0            999 V2000
   -1.9040   -1.9900    2.9190 O   0  0
   -1.1270   -0.9250    2.9280 C   0  0
   -2.3020   -2.5360    4.1680 C   0  0
   -0.7150   -0.3590    4.1490 C   0  0
   -0.7090   -0.3520    1.7140 C   0  0
   -1.1020   -0.8900    5.2920 O   0  0
    0.1140    0.7770    4.1490 C   0  0
    0.1190    0.7840    1.7160 C   0  0
   -0.6570   -0.2800    6.4950 C   0  0
    0.5310    1.3490    2.9350 C   0  0
    0.5640    1.3940    0.4140 C   0  0  1  0  0  0
   -0.4110    1.1700   -0.7710 C   0  0  2  0  0  0
    0.2450    2.9040    0.2700 C   0  0  2  0  0  0
    0.0070    0.0940   -1.7320 C   0  0
   -0.0490    2.6080   -1.2210 C   0  0  2  0  0  0
    1.4310    3.8300    0.5110 C   0  0
   -0.3940    0.1580   -3.0770 C   0  0
    0.8010   -0.9770   -1.2880 C   0  0
   -1.2100    3.4030   -1.8080 C   0  0
   -0.0050   -0.8470   -3.9810 C   0  0
    1.1910   -1.9820   -2.1890 C   0  0
   -0.3850   -0.7810   -5.2410 O   0  0
    0.7900   -1.9200   -3.5350 C   0  0
    0.0320   -1.8170   -6.1180 C   0  0
    1.1600   -2.8670   -4.3750 O   0  0
    2.0330   -3.8790   -3.8960 C   0  0
   -2.9440   -3.4160    4.1340 H   0  0
   -2.8270   -1.7620    4.7270 H   0  0
   -1.4040   -2.8000    4.7270 H   0  0
   -1.0270   -0.7880    0.7780 H   0  0
    0.4320    1.2130    5.0850 H   0  0
   -0.9900   -0.7370    7.4260 H   0  0
   -0.9900    0.7570    6.4950 H   0  0
    0.4330   -0.2800    6.4950 H   0  0
    1.1680    2.2220    2.9430 H   0  0
    1.6060    1.1520    0.1900 H   0  0
   -1.4580    1.0630   -0.4770 H   0  0
   -0.6380    3.2290    0.8240 H   0  0
    0.8410    2.6690   -1.8520 H   0  0
    1.2290    4.8460    0.1710 H   0  0
    2.3140    3.4710   -0.0190 H   0  0
    1.6750    3.8770    1.5720 H   0  0
   -1.0040    0.9800   -3.4220 H   0  0
    1.1130   -1.0310   -0.2540 H   0  0
   -1.4730    3.0590   -2.8080 H   0  0
   -0.9560    4.4610   -1.8760 H   0  0
   -2.0960    3.3120   -1.1790 H   0  0
    1.8010   -2.8040   -1.8440 H   0  0
   -0.2950   -1.7410   -7.1550 H   0  0
   -0.3330   -2.7660   -5.7230 H   0  0
    1.1210   -1.8510   -6.1140 H   0  0
    2.2040   -4.5920   -4.7030 H   0  0
    2.9180   -3.3980   -3.4810 H   0  0
    1.5300   -4.4080   -3.0860 H   0  0
  1  2  1  0
  1  3  1  0
  2  4  2  0
  2  5  1  0
  4  6  1  0
  4  7  1  0
  5  8  2  0
  6  9  1  0
  7 10  2  0
 11  8  1  0
 11 12  1  0
 11 13  1  0
 12 14  1  0
 12 15  1  0
 13 16  1  0
 14 17  2  0
 14 18  1  0
 15 19  1  0
 17 20  1  0
 18 21  2  0
 20 22  1  0
 20 23  2  0
 22 24  1  0
 23 25  1  0
 25 26  1  0
  8 10  1  0
 13 15  1  0
 21 23  1  0
  3 27  1  0
  3 28  1  0
  3 29  1  0
  5 30  1  0
  7 31  1  0
  9 32  1  0
  9 33  1  0
  9 34  1  0
 10 35  1  0
 11 36  1  0
 12 37  1  0
 13 38  1  0
 15 39  1  0
 16 40  1  0
 16 41  1  0
 16 42  1  0
 17 43  1  0
 18 44  1  0
 19 45  1  0
 19 46  1  0
 19 47  1  0
 21 48  1  0
 24 49  1  0
 24 50  1  0
 24 51  1  0
 26 52  1  0
 26 53  1  0
 26 54  1  0
M  END
> <Name>
CHEMBL388363

> <IC50 nM>
13000

> <Molecule_ChEMBL_ID>
CHEMBL388363

> <Smiles>
COc1ccc([C@@H]2[C@@H](C)[C@H](C)[C@H]2c2ccc(OC)c(OC)c2)cc1OC

$$$$
CHEMBL3126946
  SciTegic08162514323D

 52 54  0  0  1  0            999 V2000
    1.0900    3.2990    0.9650 S   0  0
    0.2270    2.5210    1.8360 O   0  0
    0.7320    4.7050    0.9080 O   0  0
    0.9810    2.6460   -0.6310 C   0  0
    2.7750    3.1560    1.5470 C   0  0
    1.3910    1.3240   -0.8880 C   0  0
    0.4790    3.4450   -1.6720 C   0  0
    1.2970    0.8070   -2.1910 C   0  0
    1.9240    0.4750    0.2090 C   0  0
    0.3870    2.9240   -2.9740 C   0  0
    0.7950    1.6050   -3.2340 C   0  0
    1.9340   -1.0040   -0.1790 C   0  0
    1.1930    0.7340    1.5280 C   0  0
    3.3160    1.1030    0.1740 C   0  0
    0.5250   -1.5780   -0.3550 C   0  0  1  0  0  0
   -0.2970   -0.5680   -0.8920 O   0  0
    0.6390   -2.7010   -1.3850 C   0  0
   -0.0900   -2.0450    0.9650 C   0  0
   -0.6050   -3.2190   -1.6350 F   0  0
    1.4550   -3.6900   -0.8960 F   0  0
    1.1700   -2.2050   -2.5470 F   0  0
   -1.6020   -2.0680    0.8870 C   0  0
   -2.3570   -3.2340    0.7580 N   0  0
   -2.5020   -0.9980    0.9260 C   0  0
   -3.6740   -2.8240    0.7230 C   0  0
   -3.7890   -1.4400    0.8260 C   0  0
   -4.8890   -3.5370    0.6060 C   0  0
   -5.0000   -0.7680    0.8190 N   0  0
   -6.1330   -2.9320    0.5920 N   0  0
   -6.1580   -1.5390    0.6990 C   0  0
    3.5270    3.4630    0.8210 H   0  0
    2.9790    2.1210    1.8190 H   0  0
    2.9040    3.7680    2.4400 H   0  0
    0.1640    4.4590   -1.4740 H   0  0
    1.6090   -0.2070   -2.3980 H   0  0
    0.0000    3.5370   -3.7750 H   0  0
    0.7230    1.2050   -4.2340 H   0  0
    2.5000   -1.5900    0.5450 H   0  0
    2.5290   -1.1620   -1.0780 H   0  0
    1.5840    1.6090    2.0430 H   0  0
    1.2930   -0.1210    2.1980 H   0  0
    0.1290    0.8980    1.3520 H   0  0
    3.2560    2.1600   -0.0820 H   0  0
    3.8130    0.9980    1.1390 H   0  0
    3.9400    0.6150   -0.5760 H   0  0
   -0.4730    0.0660   -0.1790 H   0  0
    0.2230   -1.4000    1.7850 H   0  0
    0.2750   -3.0370    1.2290 H   0  0
   -2.0180   -4.1660    0.7010 H   0  0
   -2.2110    0.0410    1.0220 H   0  0
   -4.8460   -4.6130    0.5220 H   0  0
   -7.1150   -1.0370    0.6920 H   0  0
  1  2  2  0
  1  3  2  0
  1  4  1  0
  1  5  1  0
  4  6  2  0
  4  7  1  0
  6  8  1  0
  6  9  1  0
  7 10  2  0
  8 11  2  0
  9 12  1  0
  9 13  1  0
  9 14  1  0
 12 15  1  0
 15 16  1  0
 15 17  1  0
 15 18  1  0
 17 19  1  0
 17 20  1  0
 17 21  1  0
 18 22  1  0
 22 23  1  0
 22 24  2  0
 23 25  1  0
 24 26  1  0
 25 27  1  0
 26 28  1  0
 27 29  2  0
 28 30  2  0
 10 11  1  0
 25 26  2  0
 29 30  1  0
  5 31  1  0
  5 32  1  0
  5 33  1  0
  7 34  1  0
  8 35  1  0
 10 36  1  0
 11 37  1  0
 12 38  1  0
 12 39  1  0
 13 40  1  0
 13 41  1  0
 13 42  1  0
 14 43  1  0
 14 44  1  0
 14 45  1  0
 16 46  1  0
 18 47  1  0
 18 48  1  0
 23 49  1  0
 24 50  1  0
 27 51  1  0
 30 52  1  0
M  END
> <Name>
CHEMBL3126946

> <IC50 nM>
24

> <Molecule_ChEMBL_ID>
CHEMBL3126946

> <Smiles>
CC(C)(CC(O)(Cc1cc2ncncc2[nH]1)C(F)(F)F)c1ccccc1S(C)(=O)=O

$$$$
CHEMBL3126936
  SciTegic08162514323D

 58 61  0  0  1  0            999 V2000
    4.5370    3.7230   -3.5980 F   0  0
    3.4830    3.2110   -2.9690 C   0  0
    3.4380    1.8400   -2.6660 C   0  0
    2.4100    4.0450   -2.6040 C   0  0
    2.3240    1.2990   -2.0000 C   0  0
    1.2970    3.5080   -1.9370 C   0  0
    1.2500    2.1350   -1.6350 C   0  0
    2.2950   -0.1560   -1.6870 C   0  0
    0.0630    1.5820   -0.9280 C   0  0
    2.3280    0.0530   -0.1740 C   0  0
    3.5390   -0.8710   -2.2130 C   0  0
    0.9960   -0.8090   -2.1640 C   0  0
    2.7830   -1.1950    0.5840 C   0  0  1  0  0  0
    2.3970   -2.3280   -0.1600 O   0  0
    4.3110   -1.1480    0.6250 C   0  0
    2.1580   -1.3030    1.9750 C   0  0
    4.8200   -2.0700   -0.2540 F   0  0
    4.7440   -1.4380    1.8930 F   0  0
    4.7380    0.1050    0.2720 F   0  0
    0.6470   -1.3300    1.8970 C   0  0
   -0.1050   -2.4980    1.7680 N   0  0
   -0.2560   -0.2620    1.9360 C   0  0
   -1.4240   -2.0900    1.7320 C   0  0
   -1.5430   -0.7070    1.8360 C   0  0
   -2.6370   -2.8050    1.6150 C   0  0
   -2.7560   -0.0390    1.8280 N   0  0
   -3.8810   -2.1990    1.6020 N   0  0
   -3.9200   -0.8070    1.7090 C   0  0
   -5.2070   -0.1350    1.6990 C   0  0
   -5.2770    1.2730    1.7720 C   0  0
   -6.3970   -0.8810    1.6150 C   0  0
   -6.4790    1.9240    1.7640 N   0  0
   -7.6250   -0.1970    1.6070 C   0  0
   -7.6370    1.2090    1.6820 C   0  0
    4.2640    1.2010   -2.9470 H   0  0
    2.4400    5.1020   -2.8340 H   0  0
    0.4770    4.1540   -1.6600 H   0  0
   -0.8460    2.0040   -1.3590 H   0  0
    0.0860    0.4940   -0.9770 H   0  0
    0.0980    1.8690    0.1210 H   0  0
    1.3590    0.3910    0.1910 H   0  0
    2.9530    0.9080    0.0840 H   0  0
    3.6560   -0.7460   -3.2890 H   0  0
    3.4880   -1.9390   -2.0060 H   0  0
    4.4380   -0.4800   -1.7340 H   0  0
    1.1840   -1.6270   -2.8590 H   0  0
    0.3610   -0.0800   -2.6700 H   0  0
    0.4340   -1.2090   -1.3200 H   0  0
    1.4280   -2.3670   -0.1410 H   0  0
    2.4750   -0.4710    2.6040 H   0  0
    2.5120   -2.1950    2.4880 H   0  0
    0.2360   -3.4300    1.7130 H   0  0
    0.0290    0.7770    2.0310 H   0  0
   -2.5960   -3.8810    1.5310 H   0  0
   -4.3730    1.8610    1.8360 H   0  0
   -6.3830   -1.9610    1.5570 H   0  0
   -8.5530   -0.7460    1.5430 H   0  0
   -8.5820    1.7320    1.6760 H   0  0
  1  2  1  0
  2  3  2  0
  2  4  1  0
  3  5  1  0
  4  6  2  0
  5  7  2  0
  5  8  1  0
  7  9  1  0
  8 10  1  0
  8 11  1  0
  8 12  1  0
 10 13  1  0
 13 14  1  0
 13 15  1  0
 13 16  1  0
 15 17  1  0
 15 18  1  0
 15 19  1  0
 16 20  1  0
 20 21  1  0
 20 22  2  0
 21 23  1  0
 22 24  1  0
 23 25  1  0
 24 26  1  0
 25 27  2  0
 26 28  2  0
 28 29  1  0
 29 30  2  0
 29 31  1  0
 30 32  1  0
 31 33  2  0
 32 34  2  0
  6  7  1  0
 23 24  2  0
 27 28  1  0
 33 34  1  0
  3 35  1  0
  4 36  1  0
  6 37  1  0
  9 38  1  0
  9 39  1  0
  9 40  1  0
 10 41  1  0
 10 42  1  0
 11 43  1  0
 11 44  1  0
 11 45  1  0
 12 46  1  0
 12 47  1  0
 12 48  1  0
 14 49  1  0
 16 50  1  0
 16 51  1  0
 21 52  1  0
 22 53  1  0
 25 54  1  0
 30 55  1  0
 31 56  1  0
 33 57  1  0
 34 58  1  0
M  END
> <Name>
CHEMBL3126936

> <IC50 nM>
5

> <Molecule_ChEMBL_ID>
CHEMBL3126936

> <Smiles>
Cc1ccc(F)cc1C(C)(C)CC(O)(Cc1cc2nc(-c3cccnc3)ncc2[nH]1)C(F)(F)F

$$$$
CHEMBL3126953
  SciTegic08162514323D

 49 51  0  0  1  0            999 V2000
    6.2130    1.2930   -1.6700 F   0  0
    5.2300    1.2520   -0.7730 C   0  0
    3.8910    1.2190   -1.1990 C   0  0
    5.5310    1.2380    0.5980 C   0  0
    2.8500    1.1740   -0.2540 C   0  0
    4.4940    1.1930    1.5450 C   0  0
    3.1520    1.1620    1.1230 C   0  0
    1.4370    1.1410   -0.7210 C   0  0
    2.0660    1.1150    2.1390 C   0  0
    1.2770   -0.3610   -0.4880 C   0  0
    1.3240    1.5250   -2.1970 C   0  0
    0.5270    1.9790    0.1780 C   0  0
   -0.1780   -0.8220   -0.5900 C   0  0  1  0  0  0
   -0.9240    0.2070   -1.1970 O   0  0
   -0.1860   -2.0330   -1.5230 C   0  0
   -0.7970   -1.1230    0.7760 C   0  0
   -1.4810   -2.4160   -1.7640 F   0  0
    0.4940   -3.0680   -0.9350 F   0  0
    0.4200   -1.7030   -2.7070 F   0  0
   -2.3090   -1.1460    0.6970 C   0  0
   -3.0670   -2.3120    0.5680 N   0  0
   -3.2090   -0.0760    0.7360 C   0  0
   -4.3830   -1.9020    0.5330 C   0  0
   -4.4980   -0.5180    0.6370 C   0  0
   -5.5980   -2.6150    0.4160 C   0  0
   -5.7090    0.1540    0.6290 N   0  0
   -6.8400   -2.0100    0.4010 N   0  0
   -6.8670   -0.6170    0.5100 C   0  0
    3.6620    1.2290   -2.2560 H   0  0
    6.5590    1.2640    0.9300 H   0  0
    4.7320    1.1860    2.6000 H   0  0
    1.6290    2.1070    2.2480 H   0  0
    1.3340    0.3590    1.8540 H   0  0
    2.4840    0.8260    3.1040 H   0  0
    1.7070   -0.6500    0.4710 H   0  0
    1.9100   -0.9280   -1.1720 H   0  0
    1.9350    2.3950   -2.4390 H   0  0
    0.2930    1.7600   -2.4570 H   0  0
    1.6500    0.7030   -2.8340 H   0  0
   -0.3150    2.3970   -0.3750 H   0  0
    1.0800    2.8070    0.6210 H   0  0
    0.1250    1.3730    0.9900 H   0  0
   -1.7030   -0.2050   -1.6010 H   0  0
   -0.4830   -0.3850    1.5120 H   0  0
   -0.4400   -2.0780    1.1580 H   0  0
   -2.7270   -3.2440    0.5120 H   0  0
   -2.9200    0.9630    0.8320 H   0  0
   -5.5550   -3.6910    0.3320 H   0  0
   -7.8220   -0.1150    0.5020 H   0  0
  1  2  1  0
  2  3  2  0
  2  4  1  0
  3  5  1  0
  4  6  2  0
  5  7  2  0
  5  8  1  0
  7  9  1  0
  8 10  1  0
  8 11  1  0
  8 12  1  0
 10 13  1  0
 13 14  1  0
 13 15  1  0
 13 16  1  0
 15 17  1  0
 15 18  1  0
 15 19  1  0
 16 20  1  0
 20 21  1  0
 20 22  2  0
 21 23  1  0
 22 24  1  0
 23 25  1  0
 24 26  1  0
 25 27  2  0
 26 28  2  0
  6  7  1  0
 23 24  2  0
 27 28  1  0
  3 29  1  0
  4 30  1  0
  6 31  1  0
  9 32  1  0
  9 33  1  0
  9 34  1  0
 10 35  1  0
 10 36  1  0
 11 37  1  0
 11 38  1  0
 11 39  1  0
 12 40  1  0
 12 41  1  0
 12 42  1  0
 14 43  1  0
 16 44  1  0
 16 45  1  0
 21 46  1  0
 22 47  1  0
 25 48  1  0
 28 49  1  0
M  END
> <Name>
CHEMBL3126953

> <IC50 nM>
8

> <Molecule_ChEMBL_ID>
CHEMBL3126953

> <Smiles>
Cc1ccc(F)cc1C(C)(C)CC(O)(Cc1cc2ncncc2[nH]1)C(F)(F)F

$$$$
CHEMBL380790
  SciTegic08162514323D

 49 53  0  0  1  0            999 V2000
    6.7810    0.8910   -4.3090 F   0  0
    5.9300    0.4550   -3.3850 C   0  0
    5.0800    1.3630   -2.7290 C   0  0
    5.8790   -0.9120   -3.0610 C   0  0
    4.1800    0.9060   -1.7520 C   0  0
    4.9790   -1.3710   -2.0840 C   0  0
    4.1270   -0.4630   -1.4280 C   0  0
    3.2560   -0.9060   -0.4820 N   0  0
    3.5680   -1.7910    0.5020 N   0  0
    1.9530   -0.5390   -0.3710 C   0  0
    2.5180   -2.0800    1.3160 C   0  0
    1.5370   -1.2850    0.7250 C   0  0
    1.0940    0.3850   -1.1410 C   0  0
    0.0760   -1.1920    1.1640 C   0  0
   -0.1230    0.6540   -0.6250 C   0  0
   -0.5660    0.1660    0.7400 C   0  0  1  0  0  0
   -1.2030    1.4490   -1.2990 C   0  0
   -2.1150    0.1930    0.5900 C   0  0  2  0  0  0
   -0.1190    1.2460    1.7360 C   0  0
   -2.3220    1.4800   -0.2540 C   0  0
   -2.7480    0.2770    1.8690 O   0  0
   -2.5590   -0.9630   -0.1350 O   0  0
   -4.1680    0.2750    1.8400 C   0  0  1  0  0  0
   -3.9670   -1.0860   -0.2910 C   0  0
   -4.6290   -0.9860    1.0920 C   0  0
   -4.6660    0.3220    3.2850 C   0  0
    5.1150    2.4160   -2.9750 H   0  0
    6.5310   -1.6130   -3.5630 H   0  0
    3.5330    1.6190   -1.2600 H   0  0
    4.9550   -2.4260   -1.8500 H   0  0
    2.4960   -2.7460    2.1680 H   0  0
    1.4240    0.8180   -2.0720 H   0  0
   -0.0060   -1.3340    2.2420 H   0  0
   -0.4410   -2.0330    0.7070 H   0  0
   -0.8610    2.4410   -1.5610 H   0  0
   -1.5220    0.9430   -2.1990 H   0  0
   -0.4880    2.2320    1.4570 H   0  0
    0.9670    1.2990    1.7850 H   0  0
   -0.4880    1.0230    2.7360 H   0  0
   -2.2010    2.3570    0.3690 H   0  0
   -3.2990    1.5660   -0.7090 H   0  0
   -4.5040    1.1700    1.3140 H   0  0
   -4.1820   -2.0430   -0.7640 H   0  0
   -4.3340   -0.3050   -0.9590 H   0  0
   -4.3830   -1.8750    1.6760 H   0  0
   -5.7150   -0.9840    0.9840 H   0  0
   -4.2990    1.2150    3.7910 H   0  0
   -5.7560    0.3160    3.3200 H   0  0
   -4.3110   -0.5450    3.8440 H   0  0
  1  2  1  0
  2  3  2  0
  2  4  1  0
  3  5  1  0
  4  6  2  0
  5  7  2  0
  7  8  1  0
  8  9  1  0
  8 10  1  0
  9 11  2  0
 10 12  2  0
 10 13  1  0
 12 14  1  0
 13 15  2  0
 14 16  1  0
 15 17  1  0
 16 18  1  0
 16 19  1  0
 17 20  1  0
 18 21  1  0
 18 22  1  0
 21 23  1  0
 22 24  1  0
 23 25  1  0
 23 26  1  0
  6  7  1  0
 11 12  1  0
 15 16  1  0
 18 20  1  0
 24 25  1  0
  3 27  1  0
  4 28  1  0
  5 29  1  0
  6 30  1  0
 11 31  1  0
 13 32  1  0
 14 33  1  0
 14 34  1  0
 17 35  1  0
 17 36  1  0
 19 37  1  0
 19 38  1  0
 19 39  1  0
 20 40  1  0
 20 41  1  0
 23 42  1  0
 24 43  1  0
 24 44  1  0
 25 45  1  0
 25 46  1  0
 26 47  1  0
 26 48  1  0
 26 49  1  0
M  END
> <Name>
CHEMBL380790

> <IC50 nM>
18

> <Molecule_ChEMBL_ID>
CHEMBL380790

> <Smiles>
C[C@@H]1CCO[C@@]2(CCC3=Cc4c(cnn4-c4ccc(F)cc4)C[C@@]32C)O1

$$$$
CHEMBL370194
  SciTegic08162514323D

 55 59  0  0  1  0            999 V2000
   -8.0160   -3.1110    1.2990 F   0  0
   -7.0140   -2.2990    0.9710 C   0  0
   -5.8050   -2.3500    1.6880 C   0  0
   -7.1620   -1.3890   -0.0900 C   0  0
   -4.7460   -1.4920    1.3440 C   0  0
   -6.1050   -0.5310   -0.4360 C   0  0
   -4.8930   -0.5800    0.2790 C   0  0
   -3.8710    0.2500   -0.0530 N   0  0
   -4.0080    1.5740   -0.3400 N   0  0
   -2.5620   -0.1040   -0.1500 C   0  0
   -2.8300    2.1820   -0.6520 C   0  0
   -1.9690    1.0940   -0.5290 C   0  0
   -1.8320   -1.3730    0.0490 C   0  0
   -0.4590    1.0960   -0.7830 C   0  0
   -0.4840   -1.2950    0.0610 C   0  0
    0.2600    0.0290    0.0960 C   0  0  1  0  0  0
    0.4530   -2.4590    0.0000 C   0  0
    1.6950   -0.4080   -0.3520 C   0  0
    0.2360    0.5230    1.5510 C   0  0
    1.6020   -1.8770   -0.8240 C   0  0
    2.2360    0.4060   -1.3810 O   0  0
    2.6600   -0.3070    0.6890 O   0  0
    3.2500    1.2360   -0.8610 C   0  0  1  0  0  0
    3.8240    0.3340    0.2230 C   0  0  1  0  0  0
    4.2290    1.6040   -1.9690 C   0  0
    4.4960    1.0760    1.3710 C   0  0
    3.5630    2.5920   -2.9280 C   0  0
    5.1290    0.0640    2.3300 C   0  0
   -5.6860   -3.0470    2.5040 H   0  0
   -8.0900   -1.3480   -0.6430 H   0  0
   -3.8240   -1.5450    1.9060 H   0  0
   -6.2400    0.1620   -1.2560 H   0  0
   -2.6640    3.2170   -0.9160 H   0  0
   -2.3530   -2.3140    0.1620 H   0  0
   -0.3120    0.8750   -1.8420 H   0  0
   -0.0450    2.0880   -0.6090 H   0  0
    0.0040   -3.3180   -0.4770 H   0  0
    0.7740   -2.7320    0.9940 H   0  0
    0.6330   -0.2230    2.2380 H   0  0
   -0.7830    0.7560    1.8610 H   0  0
    0.8320    1.4300    1.6600 H   0  0
    2.5200   -2.4360   -0.7030 H   0  0
    1.3360   -1.9260   -1.8730 H   0  0
    2.7810    2.1150   -0.4370 H   0  0
    4.4770   -0.4200   -0.1970 H   0  0
    5.1410    2.0290   -1.5510 H   0  0
    4.5610    0.7130   -2.5000 H   0  0
    3.7780    1.7070    1.8950 H   0  0
    5.2460    1.7720    0.9940 H   0  0
    4.2400    2.9000   -3.7250 H   0  0
    3.2400    3.4860   -2.3980 H   0  0
    2.6840    2.1450   -3.3930 H   0  0
    5.6450    0.5760    3.1430 H   0  0
    4.3690   -0.5940    2.7500 H   0  0
    5.8580   -0.5550    1.8090 H   0  0
  1  2  1  0
  2  3  2  0
  2  4  1  0
  3  5  1  0
  4  6  2  0
  5  7  2  0
  7  8  1  0
  8  9  1  0
  8 10  1  0
  9 11  2  0
 10 12  2  0
 10 13  1  0
 12 14  1  0
 13 15  2  0
 14 16  1  0
 15 17  1  0
 16 18  1  0
 16 19  1  0
 17 20  1  0
 18 21  1  0
 18 22  1  0
 21 23  1  0
 22 24  1  0
 23 25  1  0
 24 26  1  0
 25 27  1  0
 26 28  1  0
  6  7  1  0
 11 12  1  0
 15 16  1  0
 18 20  1  0
 23 24  1  0
  3 29  1  0
  4 30  1  0
  5 31  1  0
  6 32  1  0
 11 33  1  0
 13 34  1  0
 14 35  1  0
 14 36  1  0
 17 37  1  0
 17 38  1  0
 19 39  1  0
 19 40  1  0
 19 41  1  0
 20 42  1  0
 20 43  1  0
 23 44  1  0
 24 45  1  0
 25 46  1  0
 25 47  1  0
 26 48  1  0
 26 49  1  0
 27 50  1  0
 27 51  1  0
 27 52  1  0
 28 53  1  0
 28 54  1  0
 28 55  1  0
M  END
> <Name>
CHEMBL370194

> <IC50 nM>
6.6

> <Molecule_ChEMBL_ID>
CHEMBL370194

> <Smiles>
CC[C@H]1OC2(CCC3=Cc4c(cnn4-c4ccc(F)cc4)C[C@@]32C)O[C@@H]1CC

$$$$
CHEMBL203350
  SciTegic08162514323D

 58 60  0  0  0  0            999 V2000
   -1.0250   -1.4630   -1.2030 S   0  0
   -1.8930   -0.9530    0.3080 C   0  0
   -0.8300   -3.2280   -0.8260 C   0  0
   -2.1990    0.5240    0.2380 C   0  0
   -0.1130   -3.9550   -1.9650 C   0  0
   -1.1130    1.5470    0.2870 C   0  0
   -3.4840    0.9180    0.1270 C   0  0
   -0.0660   -5.4690   -1.7620 C   0  0
   -1.4450    2.9300    0.2170 C   0  0
    0.2420    1.1470    0.4060 C   0  0
   -3.8850    2.3790    0.0510 C   0  0
    0.4260   -6.2170   -3.0000 C   0  0
    0.6860   -5.8710   -0.4920 C   0  0
   -2.7380    3.3320    0.1030 N   0  0
   -0.4040    3.8950    0.2670 C   0  0
    1.2750    2.1150    0.4550 C   0  0
   -4.6390    2.5980   -1.2660 C   0  0
   -4.8180    2.6780    1.2260 C   0  0
    0.9430    3.4880    0.3870 C   0  0
    2.6680    1.6990    0.5780 C   0  0
    3.5060    2.2790    1.5550 C   0  0
    3.1760    0.7130   -0.2890 C   0  0
    3.0550    3.2050    2.3790 O   0  0
    4.8460    1.8630    1.6540 C   0  0
    4.5140    0.3030   -0.1840 C   0  0
    3.9790    3.8110    3.2710 C   0  0
    5.3500    0.8790    0.7870 C   0  0
   -2.8180   -1.5190    0.4040 H   0  0
   -1.2640   -1.1600    1.1740 H   0  0
   -1.8090   -3.6700   -0.6410 H   0  0
   -0.2790   -3.3420    0.1090 H   0  0
    0.8910   -3.5550   -2.1080 H   0  0
   -0.5680   -3.7090   -2.9260 H   0  0
   -4.2600    0.1660    0.0920 H   0  0
   -1.1410   -5.6030   -1.6310 H   0  0
    0.4940    0.0960    0.4590 H   0  0
   -0.1410   -5.9430   -3.8910 H   0  0
    0.3340   -7.2950   -2.8630 H   0  0
    1.4770   -5.9940   -3.1920 H   0  0
    0.2310   -5.4430    0.4020 H   0  0
    1.7210   -5.5310   -0.5330 H   0  0
    0.6950   -6.9550   -0.3770 H   0  0
   -2.9530    4.3110    0.0510 H   0  0
   -0.6270    4.9510    0.2150 H   0  0
   -4.0080    2.3970   -2.1310 H   0  0
   -4.9900    3.6270   -1.3420 H   0  0
   -5.5080    1.9440   -1.3240 H   0  0
   -4.3220    2.5350    2.1850 H   0  0
   -5.6910    2.0260    1.2010 H   0  0
   -5.1740    3.7090    1.1840 H   0  0
    1.7150    4.2440    0.4220 H   0  0
    2.5450    0.2600   -1.0430 H   0  0
    5.4940    2.3010    2.3980 H   0  0
    4.9000   -0.4530   -0.8500 H   0  0
    3.4790    4.6430    3.7680 H   0  0
    4.3830    3.0350    3.9220 H   0  0
    4.8030    4.2170    2.6870 H   0  0
    6.3810    0.5630    0.8690 H   0  0
  1  2  1  0
  1  3  1  0
  2  4  1  0
  3  5  1  0
  4  6  1  0
  4  7  2  0
  5  8  1  0
  6  9  2  0
  6 10  1  0
  7 11  1  0
  8 12  1  0
  8 13  1  0
  9 14  1  0
  9 15  1  0
 10 16  2  0
 11 17  1  0
 11 18  1  0
 15 19  2  0
 16 20  1  0
 20 21  2  0
 20 22  1  0
 21 23  1  0
 21 24  1  0
 22 25  2  0
 23 26  1  0
 24 27  2  0
 11 14  1  0
 16 19  1  0
 25 27  1  0
  2 28  1  0
  2 29  1  0
  3 30  1  0
  3 31  1  0
  5 32  1  0
  5 33  1  0
  7 34  1  0
  8 35  1  0
 10 36  1  0
 12 37  1  0
 12 38  1  0
 12 39  1  0
 13 40  1  0
 13 41  1  0
 13 42  1  0
 14 43  1  0
 15 44  1  0
 17 45  1  0
 17 46  1  0
 17 47  1  0
 18 48  1  0
 18 49  1  0
 18 50  1  0
 19 51  1  0
 22 52  1  0
 24 53  1  0
 25 54  1  0
 26 55  1  0
 26 56  1  0
 26 57  1  0
 27 58  1  0
M  END
> <Name>
CHEMBL203350

> <IC50 nM>
703

> <Molecule_ChEMBL_ID>
CHEMBL203350

> <Smiles>
COc1ccccc1-c1ccc2c(c1)C(CSCCC(C)C)=CC(C)(C)N2

$$$$
CHEMBL71871
  SciTegic08162514323D

 52 54  0  0  0  0            999 V2000
   -3.5020    2.3790    2.5590 S   0  0
   -2.5470    3.3200    3.1170 O   0  0
   -4.3280    2.9530    1.5100 O   0  0
   -2.6600    1.1600    1.9030 N   0  0
   -4.5650    1.7890    3.8710 C   0  0
   -1.7110    1.4200    0.9470 C   0  0
   -0.8950    0.3890    0.4220 C   0  0
   -1.5550    2.7400    0.4860 C   0  0
    0.0740    0.6950   -0.5620 C   0  0
   -1.0550   -1.0180    0.9080 C   0  0
   -0.5920    3.0390   -0.4920 C   0  0
    0.8850   -0.2770   -1.0940 N   0  0
    0.2190    2.0220   -1.0140 C   0  0
   -0.5200   -1.1310    2.2070 O   0  0
    0.6700   -0.7750   -2.4610 C   0  0
    1.9840   -0.8360   -0.2950 C   0  0
   -0.0250   -2.0900   -2.4610 C   0  0
    2.9920    0.2010    0.0470 C   0  0
   -1.4320   -2.1410   -2.4610 C   0  0
    0.7210   -3.2810   -2.4610 C   0  0
    3.1000    0.6700    1.3690 C   0  0
    3.8400    0.7170   -0.9490 C   0  0
   -2.0880   -3.3830   -2.4610 C   0  0
    0.0620   -4.5230   -2.4610 C   0  0
    4.0550    1.6500    1.6940 C   0  0
    4.7930    1.6970   -0.6250 C   0  0
   -1.3420   -4.5740   -2.4610 C   0  0
    4.9000    2.1640    0.6950 C   0  0
   -2.8320    0.2190    2.1950 H   0  0
   -5.0900    2.6310    4.3190 H   0  0
   -5.2420    1.0310    3.4770 H   0  0
   -3.9590    1.3220    4.6470 H   0  0
   -2.1680    3.5410    0.8750 H   0  0
   -0.5020   -1.6930    0.2540 H   0  0
   -2.1150   -1.2680    0.9530 H   0  0
   -0.4770    4.0550   -0.8420 H   0  0
    0.9530    2.2760   -1.7660 H   0  0
   -0.6410   -2.0510    2.4880 H   0  0
    1.6350   -0.8750   -2.9610 H   0  0
    0.0780   -0.0510   -3.0190 H   0  0
    2.4630   -1.6370   -0.8550 H   0  0
    1.5800   -1.2660    0.6210 H   0  0
   -2.0100   -1.2300   -2.4610 H   0  0
    1.8010   -3.2500   -2.4610 H   0  0
    2.4530    0.2790    2.1410 H   0  0
    3.7620    0.3610   -1.9670 H   0  0
   -3.1680   -3.4240   -2.4610 H   0  0
    0.6370   -5.4390   -2.4610 H   0  0
    4.1370    2.0080    2.7090 H   0  0
    5.4430    2.0920   -1.3920 H   0  0
   -1.8480   -5.5290   -2.4610 H   0  0
    5.6330    2.9180    0.9450 H   0  0
  1  2  2  0
  1  3  2  0
  1  4  1  0
  1  5  1  0
  4  6  1  0
  6  7  2  0
  6  8  1  0
  7  9  1  0
  7 10  1  0
  8 11  2  0
  9 12  1  0
  9 13  2  0
 10 14  1  0
 12 15  1  0
 12 16  1  0
 15 17  1  0
 16 18  1  0
 17 19  2  0
 17 20  1  0
 18 21  2  0
 18 22  1  0
 19 23  1  0
 20 24  2  0
 21 25  1  0
 22 26  2  0
 23 27  2  0
 25 28  2  0
 11 13  1  0
 24 27  1  0
 26 28  1  0
  4 29  1  0
  5 30  1  0
  5 31  1  0
  5 32  1  0
  8 33  1  0
 10 34  1  0
 10 35  1  0
 11 36  1  0
 13 37  1  0
 14 38  1  0
 15 39  1  0
 15 40  1  0
 16 41  1  0
 16 42  1  0
 19 43  1  0
 20 44  1  0
 21 45  1  0
 22 46  1  0
 23 47  1  0
 24 48  1  0
 25 49  1  0
 26 50  1  0
 27 51  1  0
 28 52  1  0
M  END
> <Name>
CHEMBL71871

> <IC50 nM>
56

> <Molecule_ChEMBL_ID>
CHEMBL71871

> <Smiles>
CS(=O)(=O)Nc1cccc(N(Cc2ccccc2)Cc2ccccc2)c1CO

$$$$
CHEMBL221646
  SciTegic08162514323D

 67 71  0  0  1  0            999 V2000
    1.1270    0.5880   -3.6060 F   0  0
    0.7110    1.4590   -2.6880 C   0  0
    0.1040    1.0100   -1.5000 C   0  0
    0.8830    2.8360   -2.9100 C   0  0
   -0.3340    1.9390   -0.5370 C   0  0
   -0.0820   -0.4570   -1.2580 C   0  0  2  0  0  0
    0.4490    3.7680   -1.9530 C   0  0
   -0.9040    1.5330    0.5800 O   0  0
   -0.1580    3.3160   -0.7680 C   0  0
   -1.0200   -0.7150   -0.0720 C   0  0
    1.2990   -1.1470   -1.1560 C   0  0
    0.6090    5.0590   -2.1640 O   0  0
   -1.3200    2.5180    1.5140 C   0  0
   -2.3480   -0.4320   -0.1350 C   0  0
   -0.4610   -1.2790    1.2340 C   0  0  2  0  0  0
    1.8710   -1.0630    0.2730 C   0  0  1  0  0  0
    0.1050    5.9610   -1.1910 C   0  0
   -3.2170   -0.6230    1.0610 C   0  0
   -2.9800    0.1290   -1.4060 C   0  0
    0.9260   -1.9320    1.1130 C   0  0  1  0  0  0
   -1.4550   -2.2720    1.8690 C   0  0
    3.2480   -1.7190    0.5510 C   0  0  2  0  0  0
    1.8870    0.3810    0.8260 C   0  0
   -4.3560    0.0840    1.1950 C   0  0
   -2.8070   -1.5940    2.1520 C   0  0
   -4.4530    0.5570   -1.2810 C   0  0
    1.6930   -2.0960    2.4280 C   0  0
    4.3150   -0.8400    0.2360 O   0  0
    3.4650   -2.9630   -0.1990 C   0  0
    3.1820   -1.9730    2.0700 C   0  0
   -4.8070    0.9790    0.1210 C   0  0
    3.6560   -3.9650   -0.8110 C   0  0
   -5.4200    1.9920    0.3530 O   0  0
    3.8990   -5.1840   -1.5720 C   0  0
    1.3500    3.1800   -3.8220 H   0  0
   -0.5590   -0.8540   -2.1540 H   0  0
   -0.4920    4.0290   -0.0290 H   0  0
    2.0080   -0.7210   -1.8670 H   0  0
    1.1840   -2.1890   -1.4590 H   0  0
   -1.7890    2.1560    2.4300 H   0  0
   -2.0290    3.1820    1.0160 H   0  0
   -0.4510    3.1090    1.7970 H   0  0
   -0.3710   -0.4380    1.9240 H   0  0
    0.3630    6.9750   -1.4980 H   0  0
   -0.9570    5.7560   -1.0530 H   0  0
    0.6090    5.7600   -0.2440 H   0  0
   -2.4280    1.0120   -1.7190 H   0  0
   -2.8790   -0.6000   -2.2150 H   0  0
    0.8180   -2.9100    0.6600 H   0  0
   -1.6070   -3.1190    1.2010 H   0  0
   -1.0610   -2.6820    2.7990 H   0  0
    0.8980    0.6990    1.1600 H   0  0
    2.2230    1.0840    0.0640 H   0  0
    2.5650    0.4610    1.6760 H   0  0
   -4.9470    0.0000    2.0940 H   0  0
   -2.7440   -1.0470    3.0960 H   0  0
   -3.5840   -2.3520    2.2830 H   0  0
   -5.0980   -0.2750   -1.5570 H   0  0
   -4.6680    1.3590   -1.9860 H   0  0
    1.4240   -1.3180    3.1290 H   0  0
    1.4730   -3.0410    2.9020 H   0  0
    4.2190   -0.5940   -0.6970 H   0  0
    3.5980   -1.1390    2.6230 H   0  0
    3.7440   -2.8460    2.3790 H   0  0
    4.8770   -5.1450   -2.0510 H   0  0
    3.8690   -6.0490   -0.9080 H   0  0
    3.1350   -5.3030   -2.3420 H   0  0
  1  2  1  0
  2  3  2  0
  2  4  1  0
  3  5  1  0
  6  3  1  0
  4  7  2  0
  5  8  1  0
  5  9  2  0
  6 10  1  0
  6 11  1  0
  7 12  1  0
  8 13  1  0
 10 14  2  0
 10 15  1  0
 11 16  1  0
 12 17  1  0
 14 18  1  0
 14 19  1  0
 15 20  1  0
 15 21  1  0
 16 22  1  0
 16 23  1  0
 18 24  2  0
 18 25  1  0
 19 26  1  0
 20 27  1  0
 22 28  1  0
 22 29  1  0
 22 30  1  0
 24 31  1  0
 29 32  3  0
 31 33  2  0
 32 34  1  0
  7  9  1  0
 16 20  1  0
 21 25  1  0
 26 31  1  0
 27 30  1  0
  4 35  1  0
  6 36  1  0
  9 37  1  0
 11 38  1  0
 11 39  1  0
 13 40  1  0
 13 41  1  0
 13 42  1  0
 15 43  1  0
 17 44  1  0
 17 45  1  0
 17 46  1  0
 19 47  1  0
 19 48  1  0
 20 49  1  0
 21 50  1  0
 21 51  1  0
 23 52  1  0
 23 53  1  0
 23 54  1  0
 24 55  1  0
 25 56  1  0
 25 57  1  0
 26 58  1  0
 26 59  1  0
 27 60  1  0
 27 61  1  0
 28 62  1  0
 30 63  1  0
 30 64  1  0
 34 65  1  0
 34 66  1  0
 34 67  1  0
M  END
> <Name>
CHEMBL221646

> <IC50 nM>
6.1

> <Molecule_ChEMBL_ID>
CHEMBL221646

> <Smiles>
CC#C[C@]1(O)CC[C@H]2[C@@H]3CCC4=CC(=O)CCC4=C3[C@@H](c3c(F)cc(OC)cc3OC)C[C@@]21C

$$$$
CHEMBL388170
  SciTegic08162514323D

 51 53  0  0  0  0            999 V2000
   -0.9570   -2.3220   -1.6560 S   0  0
   -1.9880   -2.5920   -2.6430 O   0  0
   -1.7010   -1.4960   -0.2560 C   0  0
   -0.4920   -3.8630   -0.8770 C   0  0
   -2.0080   -0.0200   -0.3260 C   0  0
    0.6090   -3.8850    0.1490 C   0  0
   -0.9220    1.0040   -0.2750 C   0  0
   -3.2930    0.3730   -0.4350 C   0  0
    0.6800   -4.9260    0.9940 C   0  0
   -1.2540    2.3870   -0.3460 C   0  0
    0.4340    0.6030   -0.1560 C   0  0
   -3.6930    1.8360   -0.5140 C   0  0
   -2.5470    2.7890   -0.4590 N   0  0
   -0.2150    3.3520   -0.2950 C   0  0
    1.4670    1.5700   -0.1070 C   0  0
   -4.4470    2.0550   -1.8280 C   0  0
   -4.6270    2.1350    0.6620 C   0  0
    1.1350    2.9450   -0.1780 C   0  0
    2.8570    1.1560    0.0160 C   0  0
    3.2280    0.1460    0.9280 C   0  0
    3.8360    1.7730   -0.7890 C   0  0
    2.3300   -0.4450    1.6920 O   0  0
    4.5780   -0.2360    1.0290 C   0  0
    5.1820    1.3830   -0.6820 C   0  0
    2.7520   -1.5430    2.4880 C   0  0
    5.5530    0.3790    0.2270 C   0  0
   -2.5880   -2.0450    0.0610 H   0  0
   -1.1210   -1.7130    0.6430 H   0  0
   -0.2990   -4.6150   -1.6430 H   0  0
   -1.3790   -4.3520   -0.4760 H   0  0
    1.3710   -3.1310    0.2810 H   0  0
   -4.0680   -0.3770   -0.4730 H   0  0
    1.4060   -5.0800    1.7770 H   0  0
   -0.0800   -5.6820    0.8590 H   0  0
    0.6850   -0.4470   -0.1030 H   0  0
   -2.7620    3.7660   -0.5120 H   0  0
   -0.4360    4.4080   -0.3480 H   0  0
   -3.8170    1.8530   -2.6950 H   0  0
   -4.8010    3.0820   -1.9040 H   0  0
   -5.3150    1.3980   -1.8890 H   0  0
   -4.1310    1.9900    1.6230 H   0  0
   -5.5000    1.4820    0.6370 H   0  0
   -4.9810    3.1660    0.6230 H   0  0
    1.9060    3.7010   -0.1410 H   0  0
    3.5680    2.5470   -1.4940 H   0  0
    4.8690   -1.0100    1.7270 H   0  0
    5.9320    1.8570   -1.2990 H   0  0
    3.1480   -2.3130    1.8260 H   0  0
    3.4320   -1.1680    3.2540 H   0  0
    1.8770   -1.9550    2.9920 H   0  0
    6.5880    0.0800    0.3090 H   0  0
  1  2  2  0
  1  3  1  0
  1  4  1  0
  3  5  1  0
  4  6  1  0
  5  7  1  0
  5  8  2  0
  6  9  2  0
  7 10  2  0
  7 11  1  0
  8 12  1  0
 10 13  1  0
 10 14  1  0
 11 15  2  0
 12 16  1  0
 12 17  1  0
 14 18  2  0
 15 19  1  0
 19 20  2  0
 19 21  1  0
 20 22  1  0
 20 23  1  0
 21 24  2  0
 22 25  1  0
 23 26  2  0
 12 13  1  0
 15 18  1  0
 24 26  1  0
  3 27  1  0
  3 28  1  0
  4 29  1  0
  4 30  1  0
  6 31  1  0
  8 32  1  0
  9 33  1  0
  9 34  1  0
 11 35  1  0
 13 36  1  0
 14 37  1  0
 16 38  1  0
 16 39  1  0
 16 40  1  0
 17 41  1  0
 17 42  1  0
 17 43  1  0
 18 44  1  0
 21 45  1  0
 23 46  1  0
 24 47  1  0
 25 48  1  0
 25 49  1  0
 25 50  1  0
 26 51  1  0
M  END
> <Name>
CHEMBL388170

> <IC50 nM>
2000

> <Molecule_ChEMBL_ID>
CHEMBL388170

> <Smiles>
C=CC[S+]([O-])CC1=CC(C)(C)Nc2ccc(-c3ccccc3OC)cc21

$$$$
CHEMBL541908
  SciTegic08162514323D

 53 55  0  0  1  0            999 V2000
    5.9260    1.5100    3.0100 F   0  0
    5.1700    0.9840    2.0470 C   0  0
    3.8260    1.3750    1.9180 C   0  0
    5.7150    0.0410    1.1620 C   0  0
    3.0260    0.8200    0.9000 C   0  0
    4.9180   -0.5140    0.1480 C   0  0
    3.5720   -0.1290    0.0120 C   0  0
    1.6330    1.2340    0.7790 C   0  0
    2.8420   -0.6640   -0.9490 O   0  0
    0.6000    0.2680    0.7290 C   0  0
    1.3010    2.6090    0.7090 C   0  0
    3.4900   -1.5100   -1.8870 C   0  0
   -0.7560    0.6660    0.6110 C   0  0
   -0.0490    3.0140    0.5900 C   0  0
   -1.0900    2.0510    0.5410 C   0  0
   -1.8420   -0.3570    0.5610 C   0  0
   -2.3810    2.4530    0.4260 N   0  0
   -3.1270    0.0370    0.4490 C   0  0
   -1.5350   -1.8340    0.6310 C   0  0  1  0  0  0
   -3.5290    1.5000    0.3730 C   0  0
   -0.7050   -2.1930   -0.4490 O   0  0
   -0.8240   -2.2210    1.9280 C   0  0
   -4.2810    1.7190   -0.9410 C   0  0
   -4.4630    1.7990    1.5490 C   0  0
   -1.3260   -2.0290   -1.7050 C   0  0
   -0.4180   -2.5510   -2.7850 C   0  0
   -0.9040   -2.6680   -4.0310 C   0  0
    3.4180    2.1040    2.6060 H   0  0
    6.7480   -0.2620    1.2600 H   0  0
    5.3420   -1.2400   -0.5290 H   0  0
    0.8520   -0.7830    0.7830 H   0  0
    2.0720    3.3650    0.7460 H   0  0
    2.7420   -1.8690   -2.5960 H   0  0
    4.3320   -0.9650   -2.3120 H   0  0
    3.8850   -2.3730   -1.3530 H   0  0
   -0.2710    4.0720    0.5390 H   0  0
   -2.5960    3.4300    0.3730 H   0  0
   -3.9020   -0.7150    0.4140 H   0  0
   -2.4770   -2.3730    0.5310 H   0  0
   -1.3870   -2.9650    2.4920 H   0  0
   -0.6890   -1.3480    2.5680 H   0  0
    0.1600   -2.6350    1.7190 H   0  0
   -3.6520    1.5160   -1.8090 H   0  0
   -4.6330    2.7460   -1.0180 H   0  0
   -5.1500    1.0620   -1.0020 H   0  0
   -3.9650    1.6540    2.5080 H   0  0
   -5.3340    1.1450    1.5250 H   0  0
   -4.8160    2.8280    1.5080 H   0  0
   -1.5100   -0.9670   -1.8570 H   0  0
   -2.2580   -2.5960   -1.6990 H   0  0
    0.6130   -2.8500   -2.6620 H   0  0
   -0.3790   -3.0240   -4.9040 H   0  0
   -1.9360   -2.3670   -4.1560 H   0  0
  1  2  1  0
  2  3  2  0
  2  4  1  0
  3  5  1  0
  4  6  2  0
  5  7  2  0
  5  8  1  0
  7  9  1  0
  8 10  2  0
  8 11  1  0
  9 12  1  0
 10 13  1  0
 11 14  2  0
 13 15  2  0
 13 16  1  0
 15 17  1  0
 16 18  2  0
 16 19  1  0
 17 20  1  0
 19 21  1  0
 19 22  1  0
 20 23  1  0
 20 24  1  0
 21 25  1  0
 25 26  1  0
 26 27  2  0
  6  7  1  0
 14 15  1  0
 18 20  1  0
  3 28  1  0
  4 29  1  0
  6 30  1  0
 10 31  1  0
 11 32  1  0
 12 33  1  0
 12 34  1  0
 12 35  1  0
 14 36  1  0
 17 37  1  0
 18 38  1  0
 19 39  1  0
 22 40  1  0
 22 41  1  0
 22 42  1  0
 23 43  1  0
 23 44  1  0
 23 45  1  0
 24 46  1  0
 24 47  1  0
 24 48  1  0
 25 49  1  0
 25 50  1  0
 26 51  1  0
 27 52  1  0
 27 53  1  0
M  END
> <Name>
CHEMBL541908

> <IC50 nM>
40

> <Molecule_ChEMBL_ID>
CHEMBL541908

> <Smiles>
Br.C=CCOC(C)C1=CC(C)(C)Nc2ccc(-c3cc(F)ccc3OC)cc21

$$$$
CHEMBL397919
  SciTegic08162514323D

 60 64  0  0  0  0            999 V2000
    2.7950   -1.3420   -2.7930 S   0  0
    1.5940   -0.1390   -2.7380 C   0  0
    3.3320   -0.8710   -4.3320 C   0  0
    1.5940    0.6400   -3.9120 C   0  0
    0.6910    0.0410   -1.6090 C   0  0
    2.5900    0.2150   -4.8180 C   0  0
    0.6820    1.7480   -4.1680 C   0  0
    0.9610   -0.4670   -0.3830 C   0  0
    0.2440    1.9330   -5.3570 N   0  0
    0.2340    2.6850   -3.0800 C   0  0
    2.1640   -1.0310   -0.2460 O   0  0
    0.0060   -0.3320    0.7660 C   0  0
   -0.6540    3.0190   -5.6310 O   0  0
    2.6950   -1.2680    0.9730 C   0  0
   -1.4080   -0.1150    0.6330 C   0  0
    0.5920   -0.4180    2.0670 C   0  0
    1.9840   -0.9630    2.1860 C   0  0
    3.9940   -1.8210    1.0200 C   0  0
   -2.1250    0.4220    1.7400 C   0  0
   -2.1880   -0.4670   -0.6050 C   0  0
   -0.1760    0.0310    3.1780 C   0  0
    2.6460   -1.2130    3.4340 C   0  0
    4.6250   -2.0610    2.2560 C   0  0
   -3.4020    0.8590    1.5980 N   0  0
   -1.5000    0.4840    3.0080 C   0  0
   -3.4300    0.0370   -0.7690 C   0  0
   -1.6740   -1.4120   -1.6660 C   0  0
    2.0760   -0.9730    4.6230 O   0  0
    3.9570   -1.7500    3.4570 C   0  0
   -4.0700    0.9430    0.2680 C   0  0
    2.1310   -1.9960    5.6060 C   0  0
    4.5700   -1.9730    4.6290 O   0  0
   -3.9900    2.3890   -0.2320 C   0  0
   -5.5370    0.5350    0.4240 C   0  0
    4.1430   -1.3580   -4.8590 H   0  0
   -0.2050    0.6130   -1.7910 H   0  0
    2.7660    0.6740   -5.7830 H   0  0
    0.2460    3.7340   -3.3770 H   0  0
    0.8810    2.5780   -2.2090 H   0  0
   -0.7830    2.4370   -2.7730 H   0  0
   -0.8910    3.0250   -6.5660 H   0  0
    4.5120   -2.0610    0.1040 H   0  0
    0.1930    0.0600    4.1880 H   0  0
    5.6190   -2.4810    2.2810 H   0  0
   -3.9240    1.1560    2.4000 H   0  0
   -2.0290    0.8730    3.8670 H   0  0
   -3.9900   -0.2110   -1.6580 H   0  0
   -0.7620   -1.9320   -1.3790 H   0  0
   -1.4710   -0.8630   -2.5840 H   0  0
   -2.4320   -2.1660   -1.8890 H   0  0
    2.0880   -2.9590    5.0980 H   0  0
    3.0040   -1.8210    6.2350 H   0  0
    1.2440   -1.9120    6.2350 H   0  0
    5.4630   -2.3440    4.6330 H   0  0
   -2.9590    2.7190   -0.3570 H   0  0
   -4.4750    3.0660    0.4730 H   0  0
   -4.4940    2.4920   -1.1930 H   0  0
   -5.6390   -0.4880    0.7790 H   0  0
   -6.0630    0.6110   -0.5290 H   0  0
   -6.0450    1.1870    1.1350 H   0  0
  1  2  1  0
  1  3  1  0
  2  4  2  0
  2  5  1  0
  3  6  2  0
  4  7  1  0
  5  8  2  0
  7  9  2  0
  7 10  1  0
  8 11  1  0
  8 12  1  0
  9 13  1  0
 11 14  1  0
 12 15  2  0
 12 16  1  0
 14 17  2  0
 14 18  1  0
 15 19  1  0
 15 20  1  0
 16 21  2  0
 17 22  1  0
 18 23  2  0
 19 24  1  0
 19 25  2  0
 20 26  2  0
 20 27  1  0
 22 28  1  0
 22 29  2  0
 24 30  1  0
 28 31  1  0
 29 32  1  0
 30 33  1  0
 30 34  1  0
  4  6  1  0
 16 17  1  0
 21 25  1  0
 23 29  1  0
 26 30  1  0
  3 35  1  0
  5 36  1  0
  6 37  1  0
 10 38  1  0
 10 39  1  0
 10 40  1  0
 13 41  1  0
 18 42  1  0
 21 43  1  0
 23 44  1  0
 24 45  1  0
 25 46  1  0
 26 47  1  0
 27 48  1  0
 27 49  1  0
 27 50  1  0
 31 51  1  0
 31 52  1  0
 31 53  1  0
 32 54  1  0
 33 55  1  0
 33 56  1  0
 33 57  1  0
 34 58  1  0
 34 59  1  0
 34 60  1  0
M  END
> <Name>
CHEMBL397919

> <IC50 nM>
1.1

> <Molecule_ChEMBL_ID>
CHEMBL397919

> <Smiles>
COc1c(O)ccc2c1-c1ccc3c(c1/C(=C/c1sccc1/C(C)=N/O)O2)C(C)=CC(C)(C)N3

$$$$
CHEMBL244966
  SciTegic08162514323D

 48 50  0  0  1  0            999 V2000
    0.2600   -2.4120    1.5720 O   0  0
    0.7620   -1.4920    0.9710 C   0  0
    0.1600   -0.9920   -0.1500 N   0  0
    2.0470   -0.8810    1.4320 C   0  0
   -1.1020   -1.5840   -0.6170 C   0  0  2  0  0  0
    2.1500   -0.3480    2.7340 C   0  0
    3.1600   -0.8320    0.5660 C   0  0
   -1.3950   -1.1820   -2.0630 C   0  0
   -2.2520   -1.2420    0.3320 C   0  0
    3.3590    0.2290    3.1640 C   0  0
    0.9900   -0.3850    3.6660 C   0  0
    4.3650   -0.2560    1.0040 C   0  0
    3.0780   -1.3870   -0.8130 C   0  0
   -1.8240    0.2680   -2.1540 C   0  0
    4.4670    0.2730    2.3010 C   0  0
   -3.0840    0.7580   -2.1920 C   0  0
   -0.9780    1.3930   -2.2190 C   0  0
    5.7420    0.8830    2.7600 C   0  0
   -3.1090    2.1270   -2.2760 C   0  0
   -4.2830    0.0040   -2.1510 C   0  0
   -1.7910    2.5530   -2.2950 N   0  0
   -4.3280    2.8460   -2.3240 C   0  0
   -5.5200    0.6950   -2.1970 C   0  0
   -5.5430    2.1150   -2.2850 C   0  0
    0.5760   -0.2320   -0.6490 H   0  0
   -0.8520   -2.6430   -0.5530 H   0  0
   -2.1680   -1.8180   -2.4900 H   0  0
   -0.5180   -1.3420   -2.6920 H   0  0
   -2.0680   -1.6580    1.3240 H   0  0
   -2.3730   -0.1620    0.4180 H   0  0
   -3.1910   -1.6560   -0.0350 H   0  0
    3.4360    0.6350    4.1620 H   0  0
    0.0250   -0.5180    3.1780 H   0  0
    0.9510    0.5450    4.2340 H   0  0
    1.1210   -1.2030    4.3750 H   0  0
    5.2170   -0.2210    0.3380 H   0  0
    2.5000   -2.3090   -0.8910 H   0  0
    4.0820   -1.5900   -1.1820 H   0  0
    2.6210   -0.6500   -1.4750 H   0  0
    0.1040    1.4100   -2.2150 H   0  0
    6.5390    0.8690    2.0160 H   0  0
    6.1020    0.3520    3.6410 H   0  0
    5.5680    1.9200    3.0430 H   0  0
   -4.2660   -1.0740   -2.0840 H   0  0
   -1.4690    3.4900   -2.3500 H   0  0
   -4.3360    3.9240   -2.3910 H   0  0
   -6.4470    0.1430   -2.1680 H   0  0
   -6.4880    2.6370   -2.3200 H   0  0
  1  2  2  0
  2  3  1  0
  2  4  1  0
  3  5  1  0
  4  6  2  0
  4  7  1  0
  5  8  1  0
  5  9  1  0
  6 10  1  0
  6 11  1  0
  7 12  2  0
  7 13  1  0
  8 14  1  0
 10 15  2  0
 14 16  1  0
 14 17  2  0
 15 18  1  0
 16 19  1  0
 16 20  2  0
 17 21  1  0
 19 22  2  0
 20 23  1  0
 22 24  1  0
 12 15  1  0
 19 21  1  0
 23 24  2  0
  3 25  1  0
  5 26  1  0
  8 27  1  0
  8 28  1  0
  9 29  1  0
  9 30  1  0
  9 31  1  0
 10 32  1  0
 11 33  1  0
 11 34  1  0
 11 35  1  0
 12 36  1  0
 13 37  1  0
 13 38  1  0
 13 39  1  0
 17 40  1  0
 18 41  1  0
 18 42  1  0
 18 43  1  0
 20 44  1  0
 21 45  1  0
 22 46  1  0
 23 47  1  0
 24 48  1  0
M  END
> <Name>
CHEMBL244966

> <IC50 nM>
2000

> <Molecule_ChEMBL_ID>
CHEMBL244966

> <Smiles>
Cc1cc(C)c(C(=O)NC(C)Cc2c[nH]c3ccccc23)c(C)c1

$$$$
CHEMBL233450
  SciTegic08162514323D

 40 42  0  0  1  0            999 V2000
    4.7150   -2.4920    3.1740 Cl  0  0
    3.0000   -2.3930    3.3010 C   0  0
    2.3460   -2.0610    4.5140 C   0  0
    2.2340   -2.6540    2.1470 C   0  0
    3.2090   -1.7310    5.9690 Cl  0  0
    0.9400   -1.9940    4.5510 C   0  0
    0.8320   -2.5860    2.1950 C   0  0
    0.1840   -2.2560    3.3950 C   0  0
   -0.0940   -2.9080    0.7760 S   0  0
   -1.4670   -2.5060    1.0260 O   0  0
    0.0410   -4.3170    0.4530 O   0  0
    0.4100   -2.0390   -0.6460 N   0  0
    0.2250   -0.6000   -0.6660 C   0  0  2  0  0  0
    0.4040   -0.0570   -2.0860 C   0  0
    1.1540    0.0740    0.3440 C   0  0
   -0.0250    1.3940   -2.1760 C   0  0
   -1.2870    1.8850   -2.2130 C   0  0
    0.8180    2.5170   -2.2420 C   0  0
   -1.3120    3.2540   -2.2970 C   0  0
   -2.4840    1.1290   -2.1720 C   0  0
    0.0080    3.6780   -2.3160 N   0  0
   -2.5290    3.9730   -2.3480 C   0  0
   -3.7230    1.8220   -2.2210 C   0  0
   -3.7440    3.2400   -2.3070 C   0  0
    2.7150   -2.9080    1.2130 H   0  0
    0.4200   -1.7420    5.4650 H   0  0
   -0.8940   -2.2010    3.4300 H   0  0
    1.4000   -2.2400   -0.8380 H   0  0
   -0.8140   -0.5140   -0.3500 H   0  0
   -0.1660   -0.6510   -2.7990 H   0  0
    1.4410   -0.1490   -2.4040 H   0  0
    0.8990   -0.2250    1.3610 H   0  0
    2.1930   -0.1880    0.1470 H   0  0
    1.0660    1.1600    0.2830 H   0  0
    1.9000    2.5370   -2.2380 H   0  0
   -2.4670    0.0510   -2.1070 H   0  0
    0.3280    4.6170   -2.3710 H   0  0
   -2.5390    5.0510   -2.4140 H   0  0
   -4.6480    1.2690   -2.1890 H   0  0
   -4.6890    3.7620   -2.3440 H   0  0
  1  2  1  0
  2  3  2  0
  2  4  1  0
  3  5  1  0
  3  6  1  0
  4  7  2  0
  6  8  2  0
  7  9  1  0
  9 10  2  0
  9 11  2  0
  9 12  1  0
 12 13  1  0
 13 14  1  0
 13 15  1  0
 14 16  1  0
 16 17  1  0
 16 18  2  0
 17 19  1  0
 17 20  2  0
 18 21  1  0
 19 22  2  0
 20 23  1  0
 22 24  1  0
  7  8  1  0
 19 21  1  0
 23 24  2  0
  4 25  1  0
  6 26  1  0
  8 27  1  0
 12 28  1  0
 13 29  1  0
 14 30  1  0
 14 31  1  0
 15 32  1  0
 15 33  1  0
 15 34  1  0
 18 35  1  0
 20 36  1  0
 21 37  1  0
 22 38  1  0
 23 39  1  0
 24 40  1  0
M  END
> <Name>
CHEMBL233450

> <IC50 nM>
6900

> <Molecule_ChEMBL_ID>
CHEMBL233450

> <Smiles>
CC(Cc1c[nH]c2ccccc12)NS(=O)(=O)c1ccc(Cl)c(Cl)c1

$$$$
CHEMBL428191
  SciTegic08162514323D

 42 44  0  0  1  0            999 V2000
    1.2680   -1.1290    1.5780 S   0  0
    1.6860   -2.4880    1.8790 O   0  0
    2.2850   -0.1390    1.8790 O   0  0
    1.0350   -1.0700   -0.1440 N   0  0
   -0.1330   -0.7720    2.5200 C   0  0
    2.1950   -1.2640   -0.9980 C   0  0  2  0  0  0
   -0.1250   -1.0080    3.9040 C   0  0
   -1.2790   -0.2440    1.8970 C   0  0
    1.8710   -0.8710   -2.4390 C   0  0
    2.7150   -2.6970   -0.8770 C   0  0
   -1.2680   -0.7170    4.6720 C   0  0
   -2.4220    0.0490    2.6620 C   0  0
    1.4410    0.5780   -2.5310 C   0  0
   -2.4080   -0.1900    4.0470 C   0  0
    0.1820    1.0700   -2.5660 C   0  0
    2.2870    1.7030   -2.5960 C   0  0
   -3.5430    0.1020    4.8070 N   0  3
    0.1560    2.4390   -2.6500 C   0  0
   -1.0180    0.3140   -2.5270 C   0  0
    1.4770    2.8630   -2.6700 N   0  0
   -3.4790   -0.1230    5.9940 O   0  0
   -4.5140    0.5610    4.2090 O   0  5
   -1.0630    3.1560   -2.7010 C   0  0
   -2.2540    1.0080   -2.5740 C   0  0
   -2.2770    2.4260   -2.6620 C   0  0
    0.3160   -1.7560   -0.4180 H   0  0
    2.9000   -0.5610   -0.5570 H   0  0
    0.7560   -1.4120    4.3810 H   0  0
   -1.2830   -0.0630    0.8320 H   0  0
    1.0880   -1.5100   -2.8460 H   0  0
    2.7340   -1.0370   -3.0860 H   0  0
    3.1000   -2.8850    0.1250 H   0  0
    1.9220   -3.4120   -1.0940 H   0  0
    3.5250   -2.8730   -1.5860 H   0  0
   -1.2640   -0.8970    5.7380 H   0  0
   -3.3030    0.4530    2.1860 H   0  0
    3.3690    1.7210   -2.5920 H   0  0
   -1.0000   -0.7640   -2.4610 H   0  0
    1.7970    3.8010   -2.7270 H   0  0
   -1.0700    4.2340   -2.7680 H   0  0
   -3.1820    0.4550   -2.5450 H   0  0
   -3.2230    2.9470   -2.6970 H   0  0
  1  2  2  0
  1  3  2  0
  1  4  1  0
  1  5  1  0
  4  6  1  0
  5  7  2  0
  5  8  1  0
  6  9  1  0
  6 10  1  0
  7 11  1  0
  8 12  2  0
  9 13  1  0
 11 14  2  0
 13 15  1  0
 13 16  2  0
 14 17  1  0
 15 18  1  0
 15 19  2  0
 16 20  1  0
 17 21  2  0
 17 22  1  0
 18 23  2  0
 19 24  1  0
 23 25  1  0
 12 14  1  0
 18 20  1  0
 24 25  2  0
  4 26  1  0
  6 27  1  0
  7 28  1  0
  8 29  1  0
  9 30  1  0
  9 31  1  0
 10 32  1  0
 10 33  1  0
 10 34  1  0
 11 35  1  0
 12 36  1  0
 16 37  1  0
 19 38  1  0
 20 39  1  0
 23 40  1  0
 24 41  1  0
 25 42  1  0
M  CHG  2  17   1  22  -1
M  END
> <Name>
CHEMBL428191

> <IC50 nM>
10000

> <Molecule_ChEMBL_ID>
CHEMBL428191

> <Smiles>
CC(Cc1c[nH]c2ccccc12)NS(=O)(=O)c1ccc([N+](=O)[O-])cc1

$$$$
CHEMBL3126941
  SciTegic08162514323D

 47 49  0  0  1  0            999 V2000
    5.6060    2.2110    0.0390 F   0  0
    4.5470    2.1440   -0.7640 C   0  0
    3.5000    1.2480   -0.4770 C   0  0
    4.4710    2.9690   -1.8980 C   0  0
    2.3810    1.1780   -1.3260 C   0  0
    3.3540    2.8960   -2.7460 C   0  0
    2.3050    2.0040   -2.4650 C   0  0
    1.2810    0.2260   -1.0120 C   0  0
    1.2620    1.9450   -3.2660 O   0  0
    1.6150   -0.6410    0.2010 C   0  0
    0.8870   -0.6000   -2.2360 C   0  0
    0.2690    1.3260   -0.6910 C   0  0
    0.3940   -1.3710    0.7620 C   0  0  1  0  0  0
   -0.5740   -1.4590   -0.2620 O   0  0
    0.8520   -2.7870    1.1090 C   0  0
   -0.2320   -0.6450    1.9510 C   0  0
   -0.2070   -3.5000    1.6070 F   0  0
    1.8460   -2.7270    2.0510 F   0  0
    1.3280   -3.4020   -0.0190 F   0  0
   -1.7440   -0.6660    1.8730 C   0  0
   -2.5020   -1.8320    1.7440 N   0  0
   -2.6450    0.4040    1.9120 C   0  0
   -3.8180   -1.4220    1.7090 C   0  0
   -3.9340   -0.0370    1.8130 C   0  0
   -5.0330   -2.1350    1.5920 C   0  0
   -5.1450    0.6350    1.8070 N   0  0
   -6.2760   -1.5290    1.5780 N   0  0
   -6.3030   -0.1370    1.6880 C   0  0
    3.5590    0.6150    0.3970 H   0  0
    5.2720    3.6580   -2.1230 H   0  0
    3.2990    3.5330   -3.6170 H   0  0
    1.2280    2.5190   -4.0410 H   0  0
    2.1000   -0.0490    0.9790 H   0  0
    2.4100   -1.3500   -0.0370 H   0  0
    1.3980   -0.2620   -3.1370 H   0  0
   -0.1860   -0.5330   -2.4180 H   0  0
    1.1330   -1.6520   -2.0880 H   0  0
    0.3980    2.1760   -1.3590 H   0  0
   -0.7500    0.9510   -0.7870 H   0  0
    0.3980    1.6820    0.3300 H   0  0
   -1.1800   -0.7110   -0.1460 H   0  0
    0.1130    0.3890    1.9980 H   0  0
    0.0900   -1.0940    2.8910 H   0  0
   -2.1620   -2.7640    1.6900 H   0  0
   -2.3560    1.4410    2.0080 H   0  0
   -4.9900   -3.2110    1.5080 H   0  0
   -7.2580    0.3650    1.6800 H   0  0
  1  2  1  0
  2  3  2  0
  2  4  1  0
  3  5  1  0
  4  6  2  0
  5  7  2  0
  5  8  1  0
  7  9  1  0
  8 10  1  0
  8 11  1  0
  8 12  1  0
 10 13  1  0
 13 14  1  0
 13 15  1  0
 13 16  1  0
 15 17  1  0
 15 18  1  0
 15 19  1  0
 16 20  1  0
 20 21  1  0
 20 22  2  0
 21 23  1  0
 22 24  1  0
 23 25  1  0
 24 26  1  0
 25 27  2  0
 26 28  2  0
  6  7  1  0
 23 24  2  0
 27 28  1  0
  3 29  1  0
  4 30  1  0
  6 31  1  0
  9 32  1  0
 10 33  1  0
 10 34  1  0
 11 35  1  0
 11 36  1  0
 11 37  1  0
 12 38  1  0
 12 39  1  0
 12 40  1  0
 14 41  1  0
 16 42  1  0
 16 43  1  0
 21 44  1  0
 22 45  1  0
 25 46  1  0
 28 47  1  0
M  END
> <Name>
CHEMBL3126941

> <IC50 nM>
11

> <Molecule_ChEMBL_ID>
CHEMBL3126941

> <Smiles>
CC(C)(CC(O)(Cc1cc2ncncc2[nH]1)C(F)(F)F)c1cc(F)ccc1O

$$$$
CHEMBL3421877
  SciTegic08162514323D

 53 56  0  0  1  0            999 V2000
   -4.1270   -4.0310    1.3090 O   0  0
   -3.2640   -3.1800    0.7360 C   0  0
   -3.6540   -1.8520    0.4670 C   0  0
   -1.9610   -3.6110    0.4060 C   0  0
   -2.7460   -0.9430   -0.1330 C   0  0
   -1.0490   -2.7170   -0.1970 C   0  0
   -1.4260   -1.3730   -0.4770 C   0  0
   -3.1880    0.4570   -0.4040 C   0  0
   -0.5080   -0.3670   -1.1090 C   0  0  1  0  0  0
   -2.0650    1.5250   -0.4080 C   0  0
   -0.6510    0.9360   -0.2680 C   0  0  2  0  0  0
    1.0060   -0.7580   -1.2290 C   0  0
   -1.0100   -0.1350   -2.5470 C   0  0
    0.4820    1.9320   -0.5470 C   0  0
    1.8850   -0.2110   -0.0820 C   0  0  2  0  0  0
   -0.9280   -1.3930   -3.4120 C   0  0
    1.8750    1.3710   -0.1110 C   0  0  1  0  0  0
    3.1970   -0.7250   -0.2520 O   0  0
    1.4260   -0.8120    1.2580 C   0  0
    2.7970    1.8580   -1.0760 O   0  0
    2.2990    1.9470    1.1990 C   0  0
    1.3360    2.3280    2.1560 C   0  0
    3.6640    2.1190    1.4920 C   0  0
    1.6990    2.8580    3.3610 N   0  0
    4.0270    2.6640    2.7340 C   0  0
    3.0230    3.0270    3.6520 C   0  0
   -5.0160   -3.7250    1.5290 H   0  0
   -4.6540   -1.5290    0.7210 H   0  0
   -1.6600   -4.6270    0.6130 H   0  0
   -0.0700   -3.1020   -0.4280 H   0  0
   -3.9510    0.7560    0.3160 H   0  0
   -3.6860    0.4610   -1.3770 H   0  0
   -2.1290    2.1040   -1.3320 H   0  0
   -2.2330    2.2420    0.3940 H   0  0
   -0.5570    0.6900    0.7930 H   0  0
    1.4020   -0.3120   -2.1450 H   0  0
    1.1660   -1.8200   -1.3950 H   0  0
   -2.0260    0.2640   -2.5410 H   0  0
   -0.4730    0.6910   -3.0160 H   0  0
    0.2670    2.8890   -0.0660 H   0  0
    0.4530    2.1450   -1.6190 H   0  0
   -1.3010   -1.1930   -4.4180 H   0  0
    0.1000   -1.7480   -3.4790 H   0  0
   -1.5310   -2.1930   -2.9860 H   0  0
    3.1290   -1.6910   -0.2480 H   0  0
    1.6890   -1.8670    1.3400 H   0  0
    0.3440   -0.7280    1.3670 H   0  0
    1.8870   -0.2870    2.0940 H   0  0
    3.6310    1.3790   -0.9410 H   0  0
    0.2850    2.1990    1.9370 H   0  0
    4.4240    1.8360    0.7770 H   0  0
    5.0680    2.8050    2.9840 H   0  0
    3.3030    3.4470    4.6070 H   0  0
  1  2  1  0
  2  3  2  0
  2  4  1  0
  3  5  1  0
  4  6  2  0
  5  7  2  0
  5  8  1  0
  7  9  1  0
  8 10  1  0
  9 11  1  0
  9 12  1  0
  9 13  1  0
 11 14  1  0
 12 15  1  0
 13 16  1  0
 14 17  1  0
 15 18  1  0
 15 19  1  0
 17 20  1  0
 17 21  1  0
 21 22  2  0
 21 23  1  0
 22 24  1  0
 23 25  2  0
 24 26  2  0
  6  7  1  0
 10 11  1  0
 15 17  1  0
 25 26  1  0
  1 27  1  0
  3 28  1  0
  4 29  1  0
  6 30  1  0
  8 31  1  0
  8 32  1  0
 10 33  1  0
 10 34  1  0
 11 35  1  0
 12 36  1  0
 12 37  1  0
 13 38  1  0
 13 39  1  0
 14 40  1  0
 14 41  1  0
 16 42  1  0
 16 43  1  0
 16 44  1  0
 18 45  1  0
 19 46  1  0
 19 47  1  0
 19 48  1  0
 20 49  1  0
 22 50  1  0
 23 51  1  0
 25 52  1  0
 26 53  1  0
M  END
> <Name>
CHEMBL3421877

> <IC50 nM>
22

> <Molecule_ChEMBL_ID>
CHEMBL3421877

> <Smiles>
CC[C@@]12C[C@@](C)(O)[C@](O)(c3cccnc3)C[C@H]1CCc1cc(O)ccc12

$$$$
CHEMBL3421890
  SciTegic08162514323D

 55 58  0  0  1  0            999 V2000
    6.5290    0.9410   -0.1840 O   0  0
    5.1970    0.8200   -0.1390 C   0  0
    4.5820   -0.3810   -0.5590 C   0  0
    4.4060    1.8910    0.3400 C   0  0
    3.1720   -0.5120   -0.5060 C   0  0
    2.9980    1.7750    0.3730 C   0  0
    2.3630    0.5860   -0.0760 C   0  0
    2.5120   -1.7990   -0.8980 C   0  0
    0.8710    0.4240   -0.1500 C   0  0  1  0  0  0
    1.2320   -2.0350   -0.5290 C   0  0
    3.2500   -2.8460   -1.6930 C   0  0
    0.5210   -1.0140    0.3400 C   0  0  2  0  0  0
    0.0470    1.4160    0.7010 C   0  0
    0.5230    0.6430   -1.6350 C   0  0
   -0.9770   -1.2990    0.6350 C   0  0
   -1.5040    1.2300    0.6000 C   0  0  2  0  0  0
    1.6030    1.4260   -2.3830 C   0  0
   -1.9690   -0.2170    0.1480 C   0  0  1  0  0  0
   -2.0020    2.2070   -0.3050 O   0  0
   -2.1150    1.6500    1.9490 C   0  0
   -2.0310   -0.3520   -1.2620 O   0  0
   -3.3500   -0.5430    0.6210 C   0  0
   -4.4220    0.3120    0.3110 C   0  0
   -3.5780   -1.7070    1.3770 C   0  0
   -5.7190    0.0060    0.7540 C   0  0
   -4.8770   -2.0140    1.8200 C   0  0
   -5.9470   -1.1580    1.5100 C   0  0
    7.0610    0.2030   -0.5140 H   0  0
    5.1990   -1.1950   -0.9140 H   0  0
    4.8790    2.7990    0.6780 H   0  0
    2.4300    2.6150    0.7440 H   0  0
    0.7210   -2.9340   -0.8420 H   0  0
    2.5960   -3.4940   -2.2730 H   0  0
    3.8340   -3.4770   -1.0230 H   0  0
    3.9410   -2.3650   -2.3850 H   0  0
    0.9880   -1.1210    1.3220 H   0  0
    0.3140    2.4470    0.4630 H   0  0
    0.3480    1.2770    1.7400 H   0  0
    0.3240   -0.3070   -2.1290 H   0  0
   -0.4450    1.1310   -1.7340 H   0  0
   -1.2540   -2.2870    0.2600 H   0  0
   -1.0780   -1.3790    1.7190 H   0  0
    1.2680    1.6800   -3.3890 H   0  0
    1.8550    2.3420   -1.8500 H   0  0
    2.5160    0.8340   -2.4750 H   0  0
   -1.7150    3.0740    0.0230 H   0  0
   -1.6580    2.5610    2.3360 H   0  0
   -1.9770    0.8670    2.6950 H   0  0
   -3.1860    1.8300    1.8500 H   0  0
   -2.7290    0.2460   -1.5760 H   0  0
   -4.2520    1.2090   -0.2700 H   0  0
   -2.7600   -2.3690    1.6190 H   0  0
   -6.5410    0.6640    0.5140 H   0  0
   -5.0510   -2.9080    2.4000 H   0  0
   -6.9440   -1.3950    1.8500 H   0  0
  1  2  1  0
  2  3  2  0
  2  4  1  0
  3  5  1  0
  4  6  2  0
  5  7  2  0
  5  8  1  0
  7  9  1  0
  8 10  2  0
  8 11  1  0
  9 12  1  0
  9 13  1  0
  9 14  1  0
 12 15  1  0
 13 16  1  0
 14 17  1  0
 15 18  1  0
 16 19  1  0
 16 20  1  0
 18 21  1  0
 18 22  1  0
 22 23  2  0
 22 24  1  0
 23 25  1  0
 24 26  2  0
 25 27  2  0
  6  7  1  0
 10 12  1  0
 16 18  1  0
 26 27  1  0
  1 28  1  0
  3 29  1  0
  4 30  1  0
  6 31  1  0
 10 32  1  0
 11 33  1  0
 11 34  1  0
 11 35  1  0
 12 36  1  0
 13 37  1  0
 13 38  1  0
 14 39  1  0
 14 40  1  0
 15 41  1  0
 15 42  1  0
 17 43  1  0
 17 44  1  0
 17 45  1  0
 19 46  1  0
 20 47  1  0
 20 48  1  0
 20 49  1  0
 21 50  1  0
 23 51  1  0
 24 52  1  0
 25 53  1  0
 26 54  1  0
 27 55  1  0
M  END
> <Name>
CHEMBL3421890

> <IC50 nM>
0.6

> <Molecule_ChEMBL_ID>
CHEMBL3421890

> <Smiles>
CC[C@@]12C[C@@](C)(O)[C@](O)(c3ccccc3)C[C@H]1C=C(C)c1cc(O)ccc12

$$$$
CHEMBL417202
  SciTegic08162514323D

 51 54  0  0  1  0            999 V2000
   -4.4650   -1.8500    1.1660 S   0  0
   -4.2600   -2.6800   -0.0080 O   0  0
   -4.1020   -2.5120    2.4060 O   0  0
   -3.5140   -0.5470    1.0120 N   0  0
   -6.1880   -1.3790    1.2460 C   0  0
   -2.1820   -0.6910    0.9550 C   0  0
   -1.3420    0.4390    0.8380 C   0  0
   -1.6020   -1.9790    1.0120 C   0  0
    0.0740    0.3010    0.7750 C   0  0
   -0.1990   -2.1330    0.9650 C   0  0
    0.6600   -1.0000    0.8770 C   0  0
    0.9630    1.5000    0.6330 C   0  0  1  0  0  0
    2.1430   -1.1130    0.8770 C   0  0
    2.2700    1.1820    0.1350 O   0  0
    0.3990    2.5470   -0.2690 C   0  0
    2.8870    0.0270    0.4570 C   0  0
    2.8630   -2.2890    1.2680 C   0  0
    0.3520    2.3280   -1.6580 C   0  0
   -0.0860    3.7520    0.2700 C   0  0
    4.2950   -0.0250    0.3560 C   0  0
    2.2580   -3.3830    1.7500 O   0  0
    4.2740   -2.3260    1.1720 C   0  0
   -0.1820    3.3150   -2.5100 C   0  0
   -0.6170    4.7360   -0.5780 C   0  0
    4.9880   -1.2010    0.7090 C   0  0
    2.9590   -4.6170    1.6840 C   0  0
   -0.2280    3.1040   -3.8610 N   0  0
   -0.6660    4.5220   -1.9670 C   0  0
    0.2480    1.8320   -4.4240 C   0  0
   -3.9200    0.3650    0.9610 H   0  0
   -6.8770   -2.2170    1.3500 H   0  0
   -6.4590   -0.8340    0.3400 H   0  0
   -6.3440   -0.7130    2.0940 H   0  0
   -1.7850    1.4260    0.7950 H   0  0
   -2.2210   -2.8610    1.0900 H   0  0
    0.1680   -3.1470    0.9940 H   0  0
    1.0880    1.9380    1.6250 H   0  0
    0.7270    1.3970   -2.0610 H   0  0
   -0.0510    3.9240    1.3360 H   0  0
    4.8460    0.8360    0.0080 H   0  0
    4.8110   -3.2190    1.4550 H   0  0
   -0.9880    5.6620   -0.1640 H   0  0
    6.0650   -1.2400    0.6290 H   0  0
    2.3750   -5.5220    1.8480 H   0  0
    3.7580   -4.5960    2.4260 H   0  0
    3.4220   -4.6930    0.6990 H   0  0
   -0.5880    3.8150   -4.4670 H   0  0
   -1.0780    5.2910   -2.6040 H   0  0
    0.0270    1.8070   -5.4900 H   0  0
    1.3090    1.7150   -4.1970 H   0  0
   -0.2870    1.0080   -3.9530 H   0  0
  1  2  2  0
  1  3  2  0
  1  4  1  0
  1  5  1  0
  4  6  1  0
  6  7  2  0
  6  8  1  0
  7  9  1  0
  8 10  2  0
  9 11  2  0
  9 12  1  0
 11 13  1  0
 12 14  1  0
 12 15  1  0
 13 16  2  0
 13 17  1  0
 15 18  2  0
 15 19  1  0
 16 20  1  0
 17 21  1  0
 17 22  2  0
 18 23  1  0
 19 24  2  0
 20 25  2  0
 21 26  1  0
 23 27  1  0
 23 28  2  0
 27 29  1  0
 10 11  1  0
 14 16  1  0
 22 25  1  0
 24 28  1  0
  4 30  1  0
  5 31  1  0
  5 32  1  0
  5 33  1  0
  7 34  1  0
  8 35  1  0
 10 36  1  0
 12 37  1  0
 18 38  1  0
 19 39  1  0
 20 40  1  0
 22 41  1  0
 24 42  1  0
 25 43  1  0
 26 44  1  0
 26 45  1  0
 26 46  1  0
 27 47  1  0
 28 48  1  0
 29 49  1  0
 29 50  1  0
 29 51  1  0
M  END
> <Name>
CHEMBL417202

> <IC50 nM>
23

> <Molecule_ChEMBL_ID>
CHEMBL417202

> <Smiles>
CNc1cccc(C2Oc3cccc(OC)c3-c3ccc(NS(C)(=O)=O)cc32)c1

$$$$
CHEMBL231803
  SciTegic08162514323D

 49 51  0  0  1  0            999 V2000
    1.8780   -1.3800    0.8090 S   0  0
    2.1540   -2.8060    0.8270 O   0  0
    2.9890   -0.5760    1.2890 O   0  0
    1.6650   -0.9530   -0.8640 N   0  0
    0.5140   -1.0780    1.8210 C   0  0
    2.8250   -1.0110   -1.7370 C   0  0  2  0  0  0
    0.6970   -0.8570    3.1960 C   0  0
   -0.7770   -1.0550    1.2670 C   0  0
    2.4380   -0.6380   -3.1680 C   0  0
    3.4950   -2.3830   -1.6450 C   0  0
   -0.4140   -0.6110    4.0210 C   0  0
   -1.8890   -0.8090    2.0920 C   0  0
    2.0080    0.8130   -3.2590 C   0  0
   -1.7080   -0.5870    3.4690 C   0  0
    0.7480    1.3040   -3.2950 C   0  0
    2.8530    1.9370   -3.3240 C   0  0
   -2.8840   -0.3280    4.3410 C   0  0
    0.7230    2.6730   -3.3800 C   0  0
   -0.4500    0.5480   -3.2550 C   0  0
    2.0420    3.0970   -3.3990 N   0  0
   -3.6190    0.9480    3.9290 C   0  0
   -3.8080   -1.5430    4.4160 C   0  0
   -0.4950    3.3910   -3.4290 C   0  0
   -1.6880    1.2410   -3.3030 C   0  0
   -1.7110    2.6590   -3.3900 C   0  0
    1.2610   -0.0080   -0.9280 H   0  0
    3.4600   -0.2430   -1.2960 H   0  0
    1.6900   -0.8750    3.6210 H   0  0
   -0.9170   -1.2250    0.2100 H   0  0
    1.6340   -1.2780   -3.5300 H   0  0
    3.2700   -0.8140   -3.8500 H   0  0
    3.9500   -2.5490   -0.6690 H   0  0
    4.2770   -2.4810   -2.3990 H   0  0
    2.7690   -3.1780   -1.8140 H   0  0
   -0.2690   -0.4420    5.0780 H   0  0
   -2.8790   -0.7920    1.6620 H   0  0
    3.9350    1.9550   -3.3200 H   0  0
   -2.3600   -0.1830    5.2860 H   0  0
   -0.4330   -0.5300   -3.1890 H   0  0
    2.3640    4.0350   -3.4550 H   0  0
   -2.9470    1.8040    3.8710 H   0  0
   -4.4040    1.1890    4.6460 H   0  0
   -4.0870    0.8250    2.9520 H   0  0
   -3.2490   -2.4360    4.6950 H   0  0
   -4.6020   -1.3790    5.1450 H   0  0
   -4.2770   -1.7320    3.4500 H   0  0
   -0.5050    4.4690   -3.4960 H   0  0
   -2.6150    0.6880   -3.2730 H   0  0
   -2.6550    3.1810   -3.4260 H   0  0
  1  2  2  0
  1  3  2  0
  1  4  1  0
  1  5  1  0
  4  6  1  0
  5  7  2  0
  5  8  1  0
  6  9  1  0
  6 10  1  0
  7 11  1  0
  8 12  2  0
  9 13  1  0
 11 14  2  0
 13 15  1  0
 13 16  2  0
 14 17  1  0
 15 18  1  0
 15 19  2  0
 16 20  1  0
 17 21  1  0
 17 22  1  0
 18 23  2  0
 19 24  1  0
 23 25  1  0
 12 14  1  0
 18 20  1  0
 24 25  2  0
  4 26  1  0
  6 27  1  0
  7 28  1  0
  8 29  1  0
  9 30  1  0
  9 31  1  0
 10 32  1  0
 10 33  1  0
 10 34  1  0
 11 35  1  0
 12 36  1  0
 16 37  1  0
 17 38  1  0
 19 39  1  0
 20 40  1  0
 21 41  1  0
 21 42  1  0
 21 43  1  0
 22 44  1  0
 22 45  1  0
 22 46  1  0
 23 47  1  0
 24 48  1  0
 25 49  1  0
M  END
> <Name>
CHEMBL231803

> <IC50 nM>
750

> <Molecule_ChEMBL_ID>
CHEMBL231803

> <Smiles>
CC(Cc1c[nH]c2ccccc12)NS(=O)(=O)c1ccc(C(C)C)cc1

$$$$
CHEMBL374327
  SciTegic08162514323D

 52 54  0  0  1  0            999 V2000
   -1.4490   -4.8590    3.2460 F   0  0
   -1.0490   -4.5270    2.0220 C   0  0
   -1.0290   -3.1780    1.6290 C   0  0
   -0.6470   -5.5270    1.1190 C   0  0
   -0.6060   -2.8240    0.3360 C   0  0
   -0.2230   -5.1780   -0.1740 C   0  0
   -0.2010   -3.8280   -0.5700 C   0  0
   -0.5900   -1.3910   -0.0620 C   0  0
    0.2500   -3.4750   -1.9430 C   0  0
    0.9140   -1.2300    0.1560 C   0  0
   -1.4200   -0.5330    0.8910 C   0  0
   -0.9960   -1.2090   -1.5250 C   0  0
    1.3400    0.2340    0.2750 C   0  0  1  0  0  0
    0.9590    0.7010    1.5510 O   0  0
    2.8670    0.2520    0.1950 C   0  0
    0.6820    1.1270   -0.7770 C   0  0
    3.3520   -1.0120    0.4080 F   0  0
    3.3650    1.1000    1.1500 F   0  0
    3.2540    0.6880   -1.0470 F   0  0
    0.7380    2.5490   -0.3750 N   0  0
   -0.4040    3.2870   -0.2070 C   0  0
    1.9920    3.1000   -0.1740 C   0  0
   -0.3200    4.6640    0.1800 C   0  0
   -1.7010    2.7290   -0.4080 C   0  0
    2.1680    4.3870    0.1950 C   0  0
    1.0160    5.2890    0.4040 C   0  0
   -1.5060    5.4240    0.3460 C   0  0
   -2.8500    3.5370   -0.2250 C   0  0
    1.2480    6.4300    0.7330 O   0  0
   -2.7460    4.8590    0.1450 N   0  0
   -1.3380   -2.4120    2.3240 H   0  0
   -0.6600   -6.5670    1.4160 H   0  0
    0.0840   -5.9510   -0.8630 H   0  0
   -0.6130   -3.4240   -2.6070 H   0  0
    0.8120   -2.5430   -1.9120 H   0  0
    0.9140   -4.2540   -2.3180 H   0  0
    1.4750   -1.7300   -0.6350 H   0  0
    1.2400   -1.7990    1.0270 H   0  0
   -2.4530   -0.8750    0.9510 H   0  0
   -1.4320    0.5080    0.5650 H   0  0
   -1.0020   -0.5610    1.8990 H   0  0
   -1.6930   -0.3810   -1.6540 H   0  0
   -1.4770   -2.1090   -1.9080 H   0  0
   -0.1230   -1.0080   -2.1460 H   0  0
    0.1000    1.1390    1.4510 H   0  0
   -0.3570    0.8400   -0.9320 H   0  0
    1.1720    1.0100   -1.7420 H   0  0
    2.8850    2.5040   -0.3090 H   0  0
   -1.8360    1.6950   -0.6990 H   0  0
    3.1700    4.7640    0.3400 H   0  0
   -1.4450    6.4630    0.6350 H   0  0
   -3.8280    3.1070   -0.3770 H   0  0
  1  2  1  0
  2  3  2  0
  2  4  1  0
  3  5  1  0
  4  6  2  0
  5  7  2  0
  5  8  1  0
  7  9  1  0
  8 10  1  0
  8 11  1  0
  8 12  1  0
 10 13  1  0
 13 14  1  0
 13 15  1  0
 13 16  1  0
 15 17  1  0
 15 18  1  0
 15 19  1  0
 16 20  1  0
 20 21  1  0
 20 22  1  0
 21 23  2  0
 21 24  1  0
 22 25  2  0
 23 26  1  0
 23 27  1  0
 24 28  2  0
 26 29  2  0
 27 30  2  0
  6  7  1  0
 25 26  1  0
 28 30  1  0
  3 31  1  0
  4 32  1  0
  6 33  1  0
  9 34  1  0
  9 35  1  0
  9 36  1  0
 10 37  1  0
 10 38  1  0
 11 39  1  0
 11 40  1  0
 11 41  1  0
 12 42  1  0
 12 43  1  0
 12 44  1  0
 14 45  1  0
 16 46  1  0
 16 47  1  0
 22 48  1  0
 24 49  1  0
 25 50  1  0
 27 51  1  0
 28 52  1  0
M  END
> <Name>
CHEMBL374327

> <IC50 nM>
48

> <Molecule_ChEMBL_ID>
CHEMBL374327

> <Smiles>
Cc1ccc(F)cc1C(C)(C)CC(O)(Cn1ccc(=O)c2cnccc21)C(F)(F)F

$$$$
CHEMBL3421882
  SciTegic08162514323D

 53 55  0  0  1  0            999 V2000
   -5.6210   -1.0310    2.1440 O   0  0
   -4.4120   -0.9820    1.5700 C   0  0
   -4.2310   -0.2750    0.3610 C   0  0
   -3.3190   -1.6410    2.1720 C   0  0
   -2.9530   -0.2210   -0.2520 C   0  0
   -2.0410   -1.5860    1.5680 C   0  0
   -1.8380   -0.8710    0.3550 C   0  0
   -2.7820    0.5020   -1.5370 C   0  0
   -0.4980   -0.7710   -0.3130 C   0  0  1  0  0  0
   -1.4120    1.1950   -1.7150 C   0  0
   -0.2930    0.7030   -0.7680 C   0  0  2  0  0  0
    0.6890   -1.1840    0.6170 C   0  0
   -0.5280   -1.7010   -1.5370 C   0  0
    1.0990    0.9550   -1.3770 C   0  0
    2.1050   -0.9040    0.0550 C   0  0  2  0  0  0
   -0.5940   -3.1800   -1.1520 C   0  0
    2.2320    0.5780   -0.4010 C   0  0  1  0  0  0
    2.3280   -1.7810   -1.0390 O   0  0
    3.1760   -1.2810    1.0920 C   0  0
    3.4700    0.7970   -1.0570 O   0  0
    2.2420    1.5310    0.8030 C   0  0
    2.1780    3.0020    0.3910 C   0  0
    2.5250    3.9510    1.5370 C   0  0
   -6.3640   -0.5780    1.7250 H   0  0
   -5.0750    0.2210   -0.0960 H   0  0
   -3.4530   -2.1870    3.0940 H   0  0
   -1.2310   -2.1040    2.0600 H   0  0
   -2.9100   -0.2320   -2.3360 H   0  0
   -3.5760    1.2360   -1.6800 H   0  0
   -1.5280    2.2720   -1.5860 H   0  0
   -1.1040    1.0630   -2.7520 H   0  0
   -0.3580    1.3240    0.1270 H   0  0
    0.6030   -0.6430    1.5600 H   0  0
    0.6130   -2.2440    0.8730 H   0  0
    0.3240   -1.5100   -2.1900 H   0  0
   -1.3520   -1.4390   -2.2010 H   0  0
    1.1850    2.0060   -1.6600 H   0  0
    1.1930    0.3850   -2.3030 H   0  0
   -0.8440   -3.8110   -2.0060 H   0  0
   -1.3480   -3.3460   -0.3830 H   0  0
    0.3650   -3.5180   -0.7600 H   0  0
    3.2620   -1.6950   -1.2890 H   0  0
    4.1790   -1.0330    0.7480 H   0  0
    3.1500   -2.3520    1.2990 H   0  0
    3.0040   -0.7560    2.0290 H   0  0
    3.3320    1.5100   -1.6990 H   0  0
    1.4330    1.2870    1.4920 H   0  0
    3.1090    1.3440    1.4340 H   0  0
    2.8180    3.1900   -0.4710 H   0  0
    1.1990    3.2420   -0.0270 H   0  0
    2.4720    4.9880    1.2090 H   0  0
    1.8420    3.8090    2.3750 H   0  0
    3.5370    3.7660    1.8980 H   0  0
  1  2  1  0
  2  3  2  0
  2  4  1  0
  3  5  1  0
  4  6  2  0
  5  7  2  0
  5  8  1  0
  7  9  1  0
  8 10  1  0
  9 11  1  0
  9 12  1  0
  9 13  1  0
 11 14  1  0
 12 15  1  0
 13 16  1  0
 14 17  1  0
 15 18  1  0
 15 19  1  0
 17 20  1  0
 17 21  1  0
 21 22  1  0
 22 23  1  0
  6  7  1  0
 10 11  1  0
 15 17  1  0
  1 24  1  0
  3 25  1  0
  4 26  1  0
  6 27  1  0
  8 28  1  0
  8 29  1  0
 10 30  1  0
 10 31  1  0
 11 32  1  0
 12 33  1  0
 12 34  1  0
 13 35  1  0
 13 36  1  0
 14 37  1  0
 14 38  1  0
 16 39  1  0
 16 40  1  0
 16 41  1  0
 18 42  1  0
 19 43  1  0
 19 44  1  0
 19 45  1  0
 20 46  1  0
 21 47  1  0
 21 48  1  0
 22 49  1  0
 22 50  1  0
 23 51  1  0
 23 52  1  0
 23 53  1  0
M  END
> <Name>
CHEMBL3421882

> <IC50 nM>
20.1

> <Molecule_ChEMBL_ID>
CHEMBL3421882

> <Smiles>
CCC[C@]1(O)C[C@H]2CCc3cc(O)ccc3[C@]2(CC)C[C@@]1(C)O

$$$$
CHEMBL3421887
  SciTegic08162514323D

 53 56  0  0  1  0            999 V2000
   -2.7460   -3.6310    0.5180 O   0  0
   -2.1620   -2.5700    0.5230 C   0  0
   -2.7890   -1.2270    0.3380 C   0  0
   -0.6640   -2.6370    0.7270 C   0  0
   -2.0220   -0.0270    0.4880 C   0  0
   -4.1680   -1.1580    0.0100 C   0  0
    0.0680   -1.3650    0.2620 C   0  0  1  0  0  0
   -2.6720    1.2230    0.2620 C   0  0
   -0.5740   -0.0980    0.8930 C   0  0  1  0  0  0
   -4.7930    0.0920   -0.1910 C   0  0
    1.5860   -1.4790    0.5210 C   0  0
   -4.0430    1.2810   -0.0720 C   0  0
    0.2540    1.1580    0.4670 C   0  0
   -0.5570   -0.2110    2.4260 C   0  0
   -6.0980    0.1480   -0.4940 O   0  0
    2.3690   -0.2340    0.0370 C   0  0  1  0  0  0
    1.7890    1.0590    0.6910 C   0  0  2  0  0  0
   -1.0740    1.0530    3.1150 C   0  0
    3.7290   -0.4120    0.4040 O   0  0
    2.3480   -0.1440   -1.4570 C   0  0
    2.0210    1.0450    2.0940 O   0  0
    2.4900    2.3340    0.2010 C   0  0
    2.8440   -1.2070   -2.2320 C   0  0
    1.8320    1.0040   -2.0860 C   0  0
    2.8220   -1.1230   -3.6350 C   0  0
    1.8120    1.0860   -3.4880 C   0  0
    2.3070    0.0230   -4.2640 C   0  0
   -0.2720   -3.5000    0.1840 H   0  0
   -0.4610   -2.8300    1.7810 H   0  0
   -4.7520   -2.0620   -0.0940 H   0  0
   -0.0590   -1.3070   -0.8220 H   0  0
   -2.1430    2.1580    0.3400 H   0  0
    1.9650   -2.3810    0.0350 H   0  0
    1.7500   -1.6310    1.5900 H   0  0
   -4.5180    2.2380   -0.2340 H   0  0
   -0.1090    2.0470    0.9880 H   0  0
    0.0840    1.3480   -0.5960 H   0  0
   -1.1150   -1.0860    2.7540 H   0  0
    0.4430   -0.4610    2.7810 H   0  0
   -6.6020   -0.6740   -0.5700 H   0  0
   -1.1880    0.8870    4.1880 H   0  0
   -0.3930    1.8870    2.9550 H   0  0
   -2.0490    1.3360    2.7170 H   0  0
    4.2190    0.3520    0.0620 H   0  0
    1.6620    1.8730    2.4510 H   0  0
    1.7790    3.0780   -0.1540 H   0  0
    3.1720    2.1070   -0.6190 H   0  0
    3.0740    2.7870    1.0040 H   0  0
    3.2400   -2.0920   -1.7560 H   0  0
    1.4490    1.8240   -1.4960 H   0  0
    3.2030   -1.9390   -4.2310 H   0  0
    1.4160    1.9690   -3.9710 H   0  0
    2.2930    0.0880   -5.3420 H   0  0
  1  2  2  0
  2  3  1  0
  2  4  1  0
  3  5  2  0
  3  6  1  0
  7  4  1  0
  5  8  1  0
  5  9  1  0
  6 10  2  0
  7 11  1  0
  8 12  2  0
  9 13  1  0
  9 14  1  0
 10 15  1  0
 11 16  1  0
 13 17  1  0
 14 18  1  0
 16 19  1  0
 16 20  1  0
 17 21  1  0
 17 22  1  0
 20 23  2  0
 20 24  1  0
 23 25  1  0
 24 26  2  0
 25 27  2  0
  7  9  1  0
 10 12  1  0
 16 17  1  0
 26 27  1  0
  4 28  1  0
  4 29  1  0
  6 30  1  0
  7 31  1  0
  8 32  1  0
 11 33  1  0
 11 34  1  0
 12 35  1  0
 13 36  1  0
 13 37  1  0
 14 38  1  0
 14 39  1  0
 15 40  1  0
 18 41  1  0
 18 42  1  0
 18 43  1  0
 19 44  1  0
 21 45  1  0
 22 46  1  0
 22 47  1  0
 22 48  1  0
 23 49  1  0
 24 50  1  0
 25 51  1  0
 26 52  1  0
 27 53  1  0
M  END
> <Name>
CHEMBL3421887

> <IC50 nM>
5

> <Molecule_ChEMBL_ID>
CHEMBL3421887

> <Smiles>
CC[C@@]12C[C@@](C)(O)[C@](O)(c3ccccc3)C[C@H]1CC(=O)c1cc(O)ccc12

$$$$
CHEMBL302147
  SciTegic08162514323D

 52 56  0  0  1  0            999 V2000
   -0.9120    3.6370   -1.6170 O   0  0
   -1.9690    3.1660   -1.2650 C   0  0
   -2.0210    1.9220   -0.7070 N   0  0
   -3.2420    3.9300   -1.4330 C   0  0
   -0.8940    1.2130   -0.5450 C   0  0
   -3.2230    5.3380   -1.4510 C   0  0
   -4.4630    3.2440   -1.5760 C   0  0
   -0.8730   -0.1760   -0.8200 C   0  0
    0.2910    1.8440   -0.0980 C   0  0
   -4.4200    6.0550   -1.6090 C   0  0
   -5.6600    3.9650   -1.7340 C   0  0
    0.3150   -0.9320   -0.6420 C   0  0
    1.4830    1.1020    0.0720 C   0  0
   -5.6390    5.3690   -1.7500 C   0  0
    1.5100   -0.2990   -0.1910 C   0  0
    0.3090   -2.3930   -0.9260 C   0  0  1  0  0  0
    2.7310   -1.1350   -0.0330 C   0  0
    1.6130   -2.9000   -1.2500 O   0  0
   -0.2340   -3.1330    0.2440 C   0  0
    2.7190   -2.4300   -0.6350 C   0  0
    3.9080   -0.7210    0.6720 C   0  0
   -1.4280   -3.8670    0.1210 C   0  0
    0.4450   -3.1000    1.4750 C   0  0
    3.8690   -3.2480   -0.6070 C   0  0
    3.9860    0.4430    1.3300 O   0  0
    5.0470   -1.5590    0.7030 C   0  0
   -1.9390   -4.5670    1.2290 C   0  0
   -0.0660   -3.8010    2.5800 C   0  0
    5.0330   -2.8130    0.0590 C   0  0
    4.9570    0.5620    2.3600 C   0  0
   -1.2600   -4.5330    2.4570 C   0  0
   -2.8960    1.5350   -0.4180 H   0  0
   -2.2910    5.8730   -1.3420 H   0  0
   -4.4880    2.1640   -1.5640 H   0  0
   -1.7680   -0.6760   -1.1660 H   0  0
    0.3030    2.9020    0.1210 H   0  0
   -4.4040    7.1350   -1.6210 H   0  0
   -6.5960    3.4380   -1.8440 H   0  0
    2.3480    1.6540    0.3970 H   0  0
   -6.5590    5.9220   -1.8710 H   0  0
   -0.3360   -2.6070   -1.7790 H   0  0
   -1.9550   -3.8970   -0.8200 H   0  0
    1.3630   -2.5390    1.5760 H   0  0
    3.8580   -4.2130   -1.0940 H   0  0
    5.9380   -1.2360    1.2230 H   0  0
   -2.8550   -5.1310    1.1330 H   0  0
    0.4550   -3.7750    3.5260 H   0  0
    5.9120   -3.4410    0.0780 H   0  0
    4.7620    1.4820    2.9080 H   0  0
    4.9510   -0.3570    2.9440 H   0  0
    5.9400    0.6540    1.8930 H   0  0
   -1.6540   -5.0700    3.3070 H   0  0
  1  2  2  0
  2  3  1  0
  2  4  1  0
  3  5  1  0
  4  6  2  0
  4  7  1  0
  5  8  2  0
  5  9  1  0
  6 10  1  0
  7 11  2  0
  8 12  1  0
  9 13  2  0
 10 14  2  0
 12 15  2  0
 12 16  1  0
 15 17  1  0
 16 18  1  0
 16 19  1  0
 17 20  2  0
 17 21  1  0
 19 22  2  0
 19 23  1  0
 20 24  1  0
 21 25  1  0
 21 26  2  0
 22 27  1  0
 23 28  2  0
 24 29  2  0
 25 30  1  0
 27 31  2  0
 11 14  1  0
 13 15  1  0
 18 20  1  0
 26 29  1  0
 28 31  1  0
  3 32  1  0
  6 33  1  0
  7 34  1  0
  8 35  1  0
  9 36  1  0
 10 37  1  0
 11 38  1  0
 13 39  1  0
 14 40  1  0
 16 41  1  0
 22 42  1  0
 23 43  1  0
 24 44  1  0
 26 45  1  0
 27 46  1  0
 28 47  1  0
 29 48  1  0
 30 49  1  0
 30 50  1  0
 30 51  1  0
 31 52  1  0
M  END
> <Name>
CHEMBL302147

> <IC50 nM>
404

> <Molecule_ChEMBL_ID>
CHEMBL302147

> <Smiles>
COc1cccc2c1-c1ccc(NC(=O)c3ccccc3)cc1C(c1ccccc1)O2

$$$$
CHEMBL4762028
  SciTegic08162514323D

 84 89  0  0  1  0            999 V2000
   10.8420   -2.3480   -1.0290 O   0  0
   10.3500   -1.2520   -1.1520 C   0  0
   10.2640   -0.3480   -0.1860 O   0  0
    9.7480   -0.7850   -2.4430 C   0  0
    9.7350    0.8400   -0.7700 C   0  0
    8.9160    0.4200   -2.0020 C   0  0  2  0  0  0
    7.4980    0.0490   -1.6450 C   0  0
    7.1210   -1.0980   -1.7050 O   0  0
    6.6390    1.0390   -1.2480 N   0  0
    5.2310    0.7310   -0.9000 C   0  0
    7.0920    2.4490   -1.1520 C   0  0
    4.2580    1.7010   -1.5980 C   0  0  1  0  0  0
    6.1020    3.4040   -1.8440 C   0  0
    2.9450    1.4900   -1.1000 O   0  0
    4.6540    3.1700   -1.3870 C   0  0
    2.0180    2.0610   -1.8610 C   0  0
    2.2360    2.5270   -2.9530 O   0  0
    0.6450    2.0920   -1.2750 C   0  0
   -0.4160    2.6700   -1.9940 C   0  0
    0.4080    1.5410   -0.0020 C   0  0
   -1.7090    2.6990   -1.4410 C   0  0
   -0.8830    1.5720    0.5490 C   0  0
   -1.9450    2.1500   -0.1680 C   0  0
   -3.1560    2.1780    0.3500 O   0  0
   -3.5220    1.1410    1.2480 C   0  0  2  0  0  0
   -3.2830   -0.1780    0.6060 C   0  0
   -4.9860    1.3110    1.6540 C   0  0  1  0  0  0
   -2.4340   -1.1170    1.2170 C   0  0
   -3.9040   -0.4900   -0.6170 C   0  0
   -5.4060    0.2400    2.5700 N   0  0
   -5.2770    2.6880    2.2520 C   0  0
   -2.2050   -2.3630    0.6090 C   0  0
   -3.6780   -1.7360   -1.2250 C   0  0
   -6.7050   -0.1820    2.5590 C   0  0
   -2.8280   -2.6740   -0.6130 C   0  0
   -7.5040    0.3220    1.8030 O   0  0
   -7.1170   -1.2790    3.5040 C   0  0  2  0  0  0
   -2.5860   -4.0080   -1.2620 C   0  0
   -6.6310   -2.5230    3.0660 O   0  0
   -8.6210   -1.5350    3.5820 C   0  0
   -2.4200   -4.0880   -2.7660 C   0  0
   -1.2290   -4.3110   -1.8610 C   0  0
   -7.2910   -3.5590    3.7520 C   0  0
   -8.7090   -3.0220    3.9510 C   0  0
    9.1600   -1.5610   -2.9160 H   0  0
   10.5350   -0.4920   -3.1230 H   0  0
    9.1620    1.3870   -0.0310 H   0  0
   10.5670    1.4630   -1.0680 H   0  0
    8.9010    1.1950   -2.7540 H   0  0
    5.1210    0.8110    0.1820 H   0  0
    4.9860   -0.2990   -1.1660 H   0  0
    7.1800    2.7090   -0.0980 H   0  0
    8.0840    2.5610   -1.5900 H   0  0
    4.2380    1.4880   -2.6680 H   0  0
    6.3890    4.4380   -1.6520 H   0  0
    6.1580    3.2660   -2.9260 H   0  0
    3.9770    3.8260   -1.9320 H   0  0
    4.5610    3.4280   -0.3300 H   0  0
   -0.2460    3.0960   -2.9730 H   0  0
    1.2170    1.0940    0.5590 H   0  0
   -2.5200    3.1470   -1.9960 H   0  0
   -1.0590    1.1480    1.5270 H   0  0
   -2.9020    1.2290    2.1410 H   0  0
   -5.6330    1.3070    0.7770 H   0  0
   -1.9510   -0.8830    2.1560 H   0  0
   -4.5590    0.2270   -1.0940 H   0  0
   -4.7480   -0.1780    3.1970 H   0  0
   -6.3380    2.7950    2.4730 H   0  0
   -4.7050    2.8400    3.1680 H   0  0
   -5.0000    3.4770    1.5530 H   0  0
   -1.5530   -3.0800    1.0860 H   0  0
   -4.1600   -1.9710   -2.1640 H   0  0
   -6.7150   -1.0880    4.4900 H   0  0
   -3.1020   -4.8440   -0.7910 H   0  0
   -9.1090   -0.8980    4.3050 H   0  0
   -9.0920   -1.3690    2.6210 H   0  0
   -2.4530   -3.1620   -3.3440 H   0  0
   -2.8400   -4.9550   -3.2730 H   0  0
   -0.8520   -5.3300   -1.7660 H   0  0
   -0.4610   -3.5370   -1.8320 H   0  0
   -6.7990   -3.7070    4.7030 H   0  0
   -7.2460   -4.4750    3.1840 H   0  0
   -9.4200   -3.5330    3.3160 H   0  0
   -9.0290   -3.1580    4.9750 H   0  0
  1  2  2  0
  2  3  1  0
  2  4  1  0
  3  5  1  0
  4  6  1  0
  6  7  1  0
  7  8  2  0
  7  9  1  0
  9 10  1  0
  9 11  1  0
 10 12  1  0
 11 13  1  0
 12 14  1  0
 12 15  1  0
 14 16  1  0
 16 17  2  0
 16 18  1  0
 18 19  2  0
 18 20  1  0
 19 21  1  0
 20 22  2  0
 21 23  2  0
 23 24  1  0
 25 24  1  0
 25 26  1  0
 25 27  1  0
 26 28  2  0
 26 29  1  0
 27 30  1  0
 27 31  1  0
 28 32  1  0
 29 33  2  0
 30 34  1  0
 32 35  2  0
 34 36  2  0
 37 34  1  0
 35 38  1  0
 37 39  1  0
 37 40  1  0
 38 41  1  0
 38 42  1  0
 39 43  1  0
 40 44  1  0
  5  6  1  0
 13 15  1  0
 22 23  1  0
 33 35  1  0
 41 42  1  0
 43 44  1  0
  4 45  1  0
  4 46  1  0
  5 47  1  0
  5 48  1  0
  6 49  1  0
 10 50  1  0
 10 51  1  0
 11 52  1  0
 11 53  1  0
 12 54  1  0
 13 55  1  0
 13 56  1  0
 15 57  1  0
 15 58  1  0
 19 59  1  0
 20 60  1  0
 21 61  1  0
 22 62  1  0
 25 63  1  0
 27 64  1  0
 28 65  1  0
 29 66  1  0
 30 67  1  0
 31 68  1  0
 31 69  1  0
 31 70  1  0
 32 71  1  0
 33 72  1  0
 37 73  1  0
 38 74  1  0
 40 75  1  0
 40 76  1  0
 41 77  1  0
 41 78  1  0
 42 79  1  0
 42 80  1  0
 43 81  1  0
 43 82  1  0
 44 83  1  0
 44 84  1  0
M  END
> <Name>
CHEMBL4762028

> <IC50 nM>
2

> <Molecule_ChEMBL_ID>
CHEMBL4762028

> <Smiles>
C[C@H](NC(=O)[C@H]1CCCO1)[C@H](Oc1ccc(C(=O)O[C@H]2CCCN(C(=O)[C@H]3COC(=O)C3)C2)cc1)c1ccc(C2CC2)cc1

$$$$
CHEMBL292970
  SciTegic08162514323D

 56 59  0  0  1  0            999 V2000
   -2.4180    5.8930   -0.1170 S   0  0
   -2.0820    6.0620    1.2850 O   0  0
   -1.4650    6.5250   -1.0140 O   0  0
   -2.4060    4.3050   -0.4340 N   0  0
   -4.0370    6.5920   -0.4120 C   0  0
   -1.2770    3.5980   -0.2730 C   0  0
   -1.2560    2.2110   -0.5490 C   0  0
   -0.0940    4.2300    0.1720 C   0  0
   -0.0680    1.4570   -0.3750 C   0  0
    1.1000    3.4900    0.3360 C   0  0
    1.1270    2.0900    0.0760 C   0  0
   -0.0720   -0.0020   -0.6520 C   0  0  1  0  0  0
    2.3480    1.2540    0.2360 C   0  0
    1.2290   -0.4980   -0.9960 O   0  0
   -0.5960   -0.7830    0.5590 C   0  0
    2.3340   -0.0370   -0.3730 C   0  0
    3.5220    1.6640    0.9450 C   0  0
   -0.7580   -2.2290    0.2500 C   0  0
    3.4830   -0.8610   -0.3420 C   0  0
    3.5980    2.8280    1.6050 O   0  0
    4.6580    0.8240    0.9800 C   0  0
    0.3240   -3.1100    0.4200 C   0  0
   -1.9920   -2.7150   -0.2130 C   0  0
    4.6450   -0.4300    0.3320 C   0  0
    4.8480    3.1910    2.1720 C   0  0
    0.1700   -4.4770    0.1290 C   0  0
   -2.1450   -4.0820   -0.5040 C   0  0
   -1.0640   -4.9650   -0.3360 C   0  0
   -1.2090   -6.2460   -0.6090 O   0  0
   -2.4750   -6.6920   -1.0740 C   0  0
   -2.4240   -8.1980   -1.3280 C   0  0
   -3.2400    3.8510   -0.7480 H   0  0
   -4.1070    7.6620   -0.2150 H   0  0
   -4.7720    6.0880    0.2210 H   0  0
   -4.3220    6.4260   -1.4490 H   0  0
   -2.1500    1.7090   -0.8950 H   0  0
   -0.0820    5.2890    0.3910 H   0  0
    1.9650    4.0430    0.6580 H   0  0
   -0.7210   -0.2130   -1.5060 H   0  0
    0.0740   -0.6680    1.4100 H   0  0
   -1.5470   -0.3750    0.8980 H   0  0
    3.4710   -1.8220   -0.8300 H   0  0
    5.5470    1.1410    1.5060 H   0  0
    1.2750   -2.7420    0.7750 H   0  0
   -2.8280   -2.0430   -0.3460 H   0  0
    5.5200   -1.0610    0.3550 H   0  0
    4.9040    4.1720    2.6410 H   0  0
    5.6020    3.1540    1.3850 H   0  0
    5.1130    2.4470    2.9220 H   0  0
    1.0040   -5.1510    0.2600 H   0  0
   -3.0960   -4.4510   -0.8590 H   0  0
   -3.2190   -6.4530   -0.3140 H   0  0
   -2.7090   -6.1530   -1.9920 H   0  0
   -3.3890   -8.5630   -1.6800 H   0  0
   -1.6620   -8.4380   -2.0700 H   0  0
   -2.1780   -8.7370   -0.4140 H   0  0
  1  2  2  0
  1  3  2  0
  1  4  1  0
  1  5  1  0
  4  6  1  0
  6  7  2  0
  6  8  1  0
  7  9  1  0
  8 10  2  0
  9 11  2  0
  9 12  1  0
 11 13  1  0
 12 14  1  0
 12 15  1  0
 13 16  2  0
 13 17  1  0
 15 18  1  0
 16 19  1  0
 17 20  1  0
 17 21  2  0
 18 22  2  0
 18 23  1  0
 19 24  2  0
 20 25  1  0
 22 26  1  0
 23 27  2  0
 26 28  2  0
 28 29  1  0
 29 30  1  0
 30 31  1  0
 10 11  1  0
 14 16  1  0
 21 24  1  0
 27 28  1  0
  4 32  1  0
  5 33  1  0
  5 34  1  0
  5 35  1  0
  7 36  1  0
  8 37  1  0
 10 38  1  0
 12 39  1  0
 15 40  1  0
 15 41  1  0
 19 42  1  0
 21 43  1  0
 22 44  1  0
 23 45  1  0
 24 46  1  0
 25 47  1  0
 25 48  1  0
 25 49  1  0
 26 50  1  0
 27 51  1  0
 30 52  1  0
 30 53  1  0
 31 54  1  0
 31 55  1  0
 31 56  1  0
M  END
> <Name>
CHEMBL292970

> <IC50 nM>
548

> <Molecule_ChEMBL_ID>
CHEMBL292970

> <Smiles>
CCOc1ccc(CC2Oc3cccc(OC)c3-c3ccc(NS(C)(=O)=O)cc32)cc1

$$$$
CHEMBL3899942
  SciTegic08162514323D

 59 63  0  0  1  0            999 V2000
    7.3160    5.9670   -0.0620 F   0  0
    6.8280    4.7320    0.0330 C   0  0
    7.3590    3.7030   -0.7640 C   0  0
    5.7810    4.4570    0.9280 C   0  0
    6.8460    2.3980   -0.6620 C   0  0
    5.2660    3.1540    1.0290 C   0  0
    5.7970    2.1210    0.2350 C   0  0
    5.2990    0.8610    0.3320 N   0  0
    6.0490   -0.2950    0.3560 N   0  0
    3.9920    0.5060    0.4220 C   0  0
    5.3180   -1.4610    0.4610 C   0  0
    4.0660   -0.8730    0.4960 C   0  0
    2.7690    1.2170    0.4490 C   0  0
    2.8690   -1.6270    0.6040 C   0  0
    1.5720    0.4670    0.5550 C   0  0
    1.6210   -0.9510    0.6330 C   0  0
    0.4840   -1.6540    0.7350 O   0  0
   -0.7090   -1.0700    0.2310 C   0  0  2  0  0  0
   -1.3950   -0.3260    1.3190 C   0  0
   -1.6020   -2.1640   -0.3570 C   0  0  1  0  0  0
   -1.9280    0.9510    1.0700 C   0  0
   -1.5140   -0.9010    2.5980 C   0  0
   -2.8280   -1.5900   -0.9280 N   0  0
   -0.8750   -3.0330   -1.3830 C   0  0
   -2.5780    1.6540    2.1000 C   0  0
   -2.1640   -0.1970    3.6270 C   0  0
   -3.9240   -2.3870   -1.1010 C   0  0
   -2.6950    1.0800    3.3790 C   0  0
   -3.8870   -3.5530   -0.7870 O   0  0
   -5.1640   -1.7890   -1.6830 C   0  0
   -5.0780   -0.6370   -2.4860 C   0  0
   -6.4160   -2.3770   -1.4280 C   0  0
   -6.2460   -0.0740   -3.0330 C   0  0
   -7.5820   -1.8130   -1.9760 C   0  0
   -7.4960   -0.6620   -2.7790 C   0  0
    8.1660    3.9100   -1.4530 H   0  0
    5.3690    5.2460    1.5410 H   0  0
    7.2680    1.6210   -1.2830 H   0  0
    4.4590    2.9630    1.7250 H   0  0
    5.6720   -2.4850    0.4980 H   0  0
    2.7460    2.2950    0.3890 H   0  0
    2.8960   -2.7070    0.6620 H   0  0
    0.6210    0.9760    0.5780 H   0  0
   -0.4380   -0.3790   -0.5680 H   0  0
   -1.8690   -2.8930    0.4060 H   0  0
   -1.8420    1.3980    0.0920 H   0  0
   -1.1080   -1.8830    2.7950 H   0  0
   -2.8630   -0.6250   -1.1890 H   0  0
   -1.5270   -3.8260   -1.7460 H   0  0
   -0.5390   -2.4340   -2.2280 H   0  0
    0.0040   -3.5000   -0.9370 H   0  0
   -2.9860    2.6350    1.9100 H   0  0
   -2.2540   -0.6390    4.6080 H   0  0
   -3.1950    1.6190    4.1700 H   0  0
   -4.1210   -0.1780   -2.6870 H   0  0
   -6.4920   -3.2620   -0.8120 H   0  0
   -6.1800    0.8090   -3.6500 H   0  0
   -8.5430   -2.2640   -1.7810 H   0  0
   -8.3930   -0.2310   -3.1990 H   0  0
  1  2  1  0
  2  3  2  0
  2  4  1  0
  3  5  1  0
  4  6  2  0
  5  7  2  0
  7  8  1  0
  8  9  1  0
  8 10  1  0
  9 11  2  0
 10 12  1  0
 10 13  2  0
 12 14  2  0
 13 15  1  0
 14 16  1  0
 16 17  1  0
 18 17  1  0
 18 19  1  0
 18 20  1  0
 19 21  2  0
 19 22  1  0
 20 23  1  0
 20 24  1  0
 21 25  1  0
 22 26  2  0
 23 27  1  0
 25 28  2  0
 27 29  2  0
 27 30  1  0
 30 31  2  0
 30 32  1  0
 31 33  1  0
 32 34  2  0
 33 35  2  0
  6  7  1  0
 11 12  1  0
 15 16  2  0
 26 28  1  0
 34 35  1  0
  3 36  1  0
  4 37  1  0
  5 38  1  0
  6 39  1  0
 11 40  1  0
 13 41  1  0
 14 42  1  0
 15 43  1  0
 18 44  1  0
 20 45  1  0
 21 46  1  0
 22 47  1  0
 23 48  1  0
 24 49  1  0
 24 50  1  0
 24 51  1  0
 25 52  1  0
 26 53  1  0
 28 54  1  0
 31 55  1  0
 32 56  1  0
 33 57  1  0
 34 58  1  0
 35 59  1  0
M  END
> <Name>
CHEMBL3899942

> <IC50 nM>
1.41

> <Molecule_ChEMBL_ID>
CHEMBL3899942

> <Smiles>
C[C@H](NC(=O)c1ccccc1)[C@H](Oc1ccc2c(cnn2-c2ccc(F)cc2)c1)c1ccccc1

$$$$
CHEMBL3934504
  SciTegic08162514323D

 52 55  0  0  1  0            999 V2000
    6.0100    5.8360   -1.5860 F   0  0
    5.5220    4.6010   -1.4900 C   0  0
    6.0410    3.5760   -2.2990 C   0  0
    4.4860    4.3220   -0.5820 C   0  0
    5.5270    2.2710   -2.1990 C   0  0
    3.9710    3.0190   -0.4800 C   0  0
    4.4900    1.9900   -1.2890 C   0  0
    3.9920    0.7280   -1.1910 N   0  0
    4.7420   -0.4260   -1.1680 N   0  0
    2.6860    0.3750   -1.1020 C   0  0
    4.0120   -1.5920   -1.0620 C   0  0
    2.7600   -1.0040   -1.0270 C   0  0
    1.4630    1.0840   -1.0740 C   0  0
    1.5630   -1.7600   -0.9200 C   0  0
    0.2660    0.3360   -0.9670 C   0  0
    0.3140   -1.0820   -0.8910 C   0  0
   -0.8220   -1.7850   -0.7890 O   0  0
   -1.9590   -1.1370   -0.2380 C   0  0  2  0  0  0
   -1.6170   -0.5860    1.1000 C   0  0
   -3.1230   -2.1270   -0.1580 C   0  0  1  0  0  0
   -1.9490    0.7420    1.4200 C   0  0
   -0.9610   -1.3930    2.0470 C   0  0
   -4.3420   -1.4690    0.3300 N   0  0
   -3.3810   -2.8420   -1.4860 C   0  0
   -1.6270    1.2640    2.6840 C   0  0
   -0.6390   -0.8710    3.3110 C   0  0
   -5.2720   -2.2010    1.0160 C   0  0
   -0.9710    0.4570    3.6290 C   0  0
   -5.0920   -3.3810    1.2150 O   0  0
   -6.5140   -1.5120    1.5100 C   0  0
    6.8360    3.7850   -3.0000 H   0  0
    4.0840    5.1070    0.0410 H   0  0
    5.9400    1.4960   -2.8300 H   0  0
    3.1760    2.8240    0.2250 H   0  0
    4.3650   -2.6150   -1.0250 H   0  0
    1.4400    2.1640   -1.1350 H   0  0
    1.5900   -2.8380   -0.8610 H   0  0
   -0.6860    0.8460   -0.9450 H   0  0
   -2.2440   -0.3220   -0.9040 H   0  0
   -2.8750   -2.9590    0.5000 H   0  0
   -2.4530    1.3670    0.6970 H   0  0
   -0.7030   -2.4140    1.8070 H   0  0
   -4.4920   -0.4940    0.1660 H   0  0
   -4.1860   -3.5690   -1.3810 H   0  0
   -3.6450   -2.1270   -2.2640 H   0  0
   -2.4900   -3.3770   -1.8140 H   0  0
   -1.8810    2.2830    2.9300 H   0  0
   -0.1350   -1.4920    4.0370 H   0  0
   -0.7230    0.8570    4.6020 H   0  0
   -7.1950   -2.1740    2.0430 H   0  0
   -7.0570   -1.0800    0.6680 H   0  0
   -6.2440   -0.6990    2.1840 H   0  0
  1  2  1  0
  2  3  2  0
  2  4  1  0
  3  5  1  0
  4  6  2  0
  5  7  2  0
  7  8  1  0
  8  9  1  0
  8 10  1  0
  9 11  2  0
 10 12  1  0
 10 13  2  0
 12 14  2  0
 13 15  1  0
 14 16  1  0
 16 17  1  0
 18 17  1  0
 18 19  1  0
 18 20  1  0
 19 21  2  0
 19 22  1  0
 20 23  1  0
 20 24  1  0
 21 25  1  0
 22 26  2  0
 23 27  1  0
 25 28  2  0
 27 29  2  0
 27 30  1  0
  6  7  1  0
 11 12  1  0
 15 16  2  0
 26 28  1  0
  3 31  1  0
  4 32  1  0
  5 33  1  0
  6 34  1  0
 11 35  1  0
 13 36  1  0
 14 37  1  0
 15 38  1  0
 18 39  1  0
 20 40  1  0
 21 41  1  0
 22 42  1  0
 23 43  1  0
 24 44  1  0
 24 45  1  0
 24 46  1  0
 25 47  1  0
 26 48  1  0
 28 49  1  0
 30 50  1  0
 30 51  1  0
 30 52  1  0
M  END
> <Name>
CHEMBL3934504

> <IC50 nM>
3.1

> <Molecule_ChEMBL_ID>
CHEMBL3934504

> <Smiles>
CC(=O)N[C@@H](C)[C@H](Oc1ccc2c(cnn2-c2ccc(F)cc2)c1)c1ccccc1

$$$$
CHEMBL3964502
  SciTegic08162514323D

 59 62  0  0  1  0            999 V2000
   -0.5490    1.1620    4.5250 S   0  0
   -1.8030    1.4960    5.1780 O   0  0
    0.3220    2.3080    4.3420 O   0  0
   -0.9040    0.4980    2.9730 C   0  0
    0.3070   -0.0630    5.5080 C   0  0
   -1.5780    1.2750    2.0160 C   0  0
   -0.5200   -0.8190    2.6680 C   0  0
   -1.8670    0.7360    0.7500 C   0  0
   -0.8090   -1.3600    1.4040 C   0  0
   -1.4840   -0.5820    0.4430 C   0  0
   -1.7910   -1.1540   -0.8930 C   0  0  1  0  0  0
   -0.6410   -1.8170   -1.4000 O   0  0
   -2.9590   -2.1390   -0.8300 C   0  0  1  0  0  0
    0.4960   -1.1130   -1.5020 C   0  0
   -4.1880   -1.4690   -0.3790 N   0  0
   -3.1880   -2.8690   -2.1540 C   0  0
    1.7440   -1.7910   -1.5310 C   0  0
    0.4470    0.3050   -1.5780 C   0  0
   -5.1820   -2.2090    0.1950 C   0  0
    2.9410   -1.0350   -1.6390 C   0  0
    1.6450    1.0550   -1.6860 C   0  0
   -5.0530   -3.4030    0.3320 O   0  0
   -6.4340   -1.5080    0.6500 C   0  0
    2.8670    0.3440   -1.7130 C   0  0
    4.1950   -1.6230   -1.6740 C   0  0
   -7.3220   -2.4470    1.2110 O   0  0
    4.1740    0.6970   -1.8030 N   0  0
    4.9240   -0.4570   -1.7790 N   0  0
    4.6720    1.9590   -1.9000 C   0  0
    5.7230    2.2360   -2.7970 C   0  0
    4.1410    2.9920   -1.1030 C   0  0
    6.2360    3.5410   -2.8960 C   0  0
    4.6560    4.2950   -1.2050 C   0  0
    5.7030    4.5700   -2.1020 C   0  0
    6.1920    5.8050   -2.1970 F   0  0
    0.5720    0.2730    6.5100 H   0  0
    1.2250   -0.3580    5.0000 H   0  0
   -0.3200   -0.9490    5.6080 H   0  0
   -1.8730    2.2890    2.2500 H   0  0
   -0.0020   -1.4160    3.4040 H   0  0
   -2.3870    1.3360    0.0180 H   0  0
   -0.5120   -2.3710    1.1760 H   0  0
   -2.0510   -0.3500   -1.5800 H   0  0
   -2.7320   -2.9630   -0.1540 H   0  0
   -4.2950   -0.4830   -0.4920 H   0  0
   -4.0000   -3.5880   -2.0620 H   0  0
   -3.4240   -2.1620   -2.9490 H   0  0
   -2.2910   -3.4160   -2.4510 H   0  0
    1.7720   -2.8690   -1.4730 H   0  0
   -0.5040    0.8140   -1.5570 H   0  0
    1.6210    2.1330   -1.7460 H   0  0
   -6.9260   -1.0390   -0.2010 H   0  0
   -6.1880   -0.7740    1.4180 H   0  0
    4.5470   -2.6470   -1.6370 H   0  0
   -8.1130   -1.9610    1.4920 H   0  0
    6.1450    1.4570   -3.4180 H   0  0
    3.3340    2.7990   -0.4100 H   0  0
    7.0410    3.7480   -3.5880 H   0  0
    4.2440    5.0840   -0.5920 H   0  0
  1  2  2  0
  1  3  2  0
  1  4  1  0
  1  5  1  0
  4  6  2  0
  4  7  1  0
  6  8  1  0
  7  9  2  0
  8 10  2  0
 10 11  1  0
 11 12  1  0
 11 13  1  0
 12 14  1  0
 13 15  1  0
 13 16  1  0
 14 17  2  0
 14 18  1  0
 15 19  1  0
 17 20  1  0
 18 21  2  0
 19 22  2  0
 19 23  1  0
 20 24  2  0
 20 25  1  0
 23 26  1  0
 24 27  1  0
 25 28  2  0
 27 29  1  0
 29 30  2  0
 29 31  1  0
 30 32  1  0
 31 33  2  0
 32 34  2  0
 34 35  1  0
  9 10  1  0
 21 24  1  0
 27 28  1  0
 33 34  1  0
  5 36  1  0
  5 37  1  0
  5 38  1  0
  6 39  1  0
  7 40  1  0
  8 41  1  0
  9 42  1  0
 11 43  1  0
 13 44  1  0
 15 45  1  0
 16 46  1  0
 16 47  1  0
 16 48  1  0
 17 49  1  0
 18 50  1  0
 21 51  1  0
 23 52  1  0
 23 53  1  0
 25 54  1  0
 26 55  1  0
 30 56  1  0
 31 57  1  0
 32 58  1  0
 33 59  1  0
M  END
> <Name>
CHEMBL3964502

> <IC50 nM>
0.84

> <Molecule_ChEMBL_ID>
CHEMBL3964502

> <Smiles>
C[C@H](NC(=O)CO)[C@H](Oc1ccc2c(cnn2-c2ccc(F)cc2)c1)c1ccc(S(C)(=O)=O)cc1

$$$$
CHEMBL3358924
  SciTegic08162514323D

 57 59  0  0  1  0            999 V2000
   -6.8730   -0.2300    2.5860 F   0  0
   -6.0630   -0.1500    1.5350 C   0  0
   -4.7870    0.4260    1.6720 C   0  0
   -6.4810   -0.6390    0.2850 C   0  0
   -3.9280    0.5120    0.5610 C   0  0
   -5.6230   -0.5530   -0.8260 C   0  0
   -4.3460    0.0220   -0.6930 C   0  0
   -2.5820    1.1210    0.7190 C   0  0
   -3.5510    0.0980   -1.7400 O   0  0
   -1.8520   -0.2210    0.7360 C   0  0
   -2.4570    1.8790    2.0410 C   0  0
   -2.2070    1.9810   -0.4900 C   0  0
   -3.6470   -0.9220   -2.7250 C   0  0
   -0.3300   -0.0660    0.7230 C   0  0  1  0  0  0
   -0.0160    1.2360    1.1600 O   0  0
    0.2190   -1.0610    1.7460 C   0  0
    0.2720   -0.2600   -0.6700 C   0  0
   -0.0390   -2.3400    1.3240 F   0  0
   -0.3850   -0.8480    2.9590 F   0  0
    1.5720   -0.8850    1.8730 F   0  0
    1.7790   -0.3750   -0.6050 C   0  0
    2.6410    0.7480   -0.5290 N   0  0
    2.5680   -1.5430   -0.6070 C   0  0
    3.9340    0.2560   -0.4840 C   0  0
    3.8480   -1.1130   -0.5330 C   0  0
    5.2130    0.8480   -0.4040 C   0  0
    5.0180   -1.9240   -0.5080 C   0  0
    6.3830    0.1210   -0.3730 N   0  0
    5.3180    2.3150   -0.3500 C   0  0
    6.2830   -1.2660   -0.4240 C   0  0
    7.5160   -2.0680   -0.3930 C   0  0
   -4.4670    0.8010    2.6330 H   0  0
   -7.4590   -1.0820    0.1740 H   0  0
   -5.9470   -0.9300   -1.7830 H   0  0
   -2.1820   -0.8500   -0.0900 H   0  0
   -2.1700   -0.8220    1.5880 H   0  0
   -3.3070    2.5410    2.2110 H   0  0
   -1.5530    2.4860    2.0530 H   0  0
   -2.4020    1.1840    2.8790 H   0  0
   -3.0820    2.4570   -0.9380 H   0  0
   -1.7290    1.3750   -1.2600 H   0  0
   -1.5100    2.7680   -0.2030 H   0  0
   -3.8830   -1.8590   -2.2230 H   0  0
   -4.3500   -0.5940   -3.4900 H   0  0
   -2.6700   -1.0330   -3.1950 H   0  0
    0.4430    1.6820    0.4320 H   0  0
   -0.0020    0.5660   -1.3260 H   0  0
   -0.1410   -1.1480   -1.1470 H   0  0
    2.3670    1.7050   -0.5120 H   0  0
    2.2150   -2.5640   -0.6560 H   0  0
    4.9550   -3.0020   -0.5470 H   0  0
    6.3420    2.6900   -0.3090 H   0  0
    4.7930    2.6860    0.5310 H   0  0
    4.8400    2.7480   -1.2290 H   0  0
    8.4300   -1.4820   -0.3030 H   0  0
    7.5880   -2.6600   -1.3050 H   0  0
    7.4790   -2.7600    0.4490 H   0  0
  1  2  1  0
  2  3  2  0
  2  4  1  0
  3  5  1  0
  4  6  2  0
  5  7  2  0
  5  8  1  0
  7  9  1  0
  8 10  1  0
  8 11  1  0
  8 12  1  0
  9 13  1  0
 10 14  1  0
 14 15  1  0
 14 16  1  0
 14 17  1  0
 16 18  1  0
 16 19  1  0
 16 20  1  0
 17 21  1  0
 21 22  1  0
 21 23  2  0
 22 24  1  0
 23 25  1  0
 24 26  1  0
 25 27  1  0
 26 28  2  0
 26 29  1  0
 27 30  2  0
 30 31  1  0
  6  7  1  0
 24 25  2  0
 28 30  1  0
  3 32  1  0
  4 33  1  0
  6 34  1  0
 10 35  1  0
 10 36  1  0
 11 37  1  0
 11 38  1  0
 11 39  1  0
 12 40  1  0
 12 41  1  0
 12 42  1  0
 13 43  1  0
 13 44  1  0
 13 45  1  0
 15 46  1  0
 17 47  1  0
 17 48  1  0
 22 49  1  0
 23 50  1  0
 27 51  1  0
 29 52  1  0
 29 53  1  0
 29 54  1  0
 31 55  1  0
 31 56  1  0
 31 57  1  0
M  END
> <Name>
CHEMBL3358924

> <IC50 nM>
510

> <Molecule_ChEMBL_ID>
CHEMBL3358924

> <Smiles>
COc1ccc(F)cc1C(C)(C)CC(O)(Cc1cc2cc(C)nc(C)c2[nH]1)C(F)(F)F

$$$$
CHEMBL3358937
  SciTegic08162514323D

 66 69  0  0  1  0            999 V2000
    2.9300    4.4710    0.2910 S   0  0
    3.4240    4.5650   -1.0720 O   0  0
    3.3320    5.5900    1.1230 O   0  0
    3.5450    3.0200    0.9940 C   0  0
    1.1430    4.3950    0.2520 C   0  0
    3.2050    1.7660    0.4530 C   0  0
    4.3910    3.1000    2.1150 C   0  0
    3.7130    0.5920    1.0350 C   0  0
    2.3110    1.6760   -0.7320 C   0  0
    4.8990    1.9240    2.6950 C   0  0
    4.5610    0.6700    2.1560 C   0  0
    2.3790    0.2950   -1.3830 C   0  0
    2.5740    2.8090   -1.7230 C   0  0
    1.0310    1.8850    0.0780 C   0  0
    1.6500    0.2400   -2.7270 C   0  0  1  0  0  0
    2.4860    0.8160   -3.7050 O   0  0
    1.4690   -1.2400   -3.0640 C   0  0
    0.3300    1.0080   -2.7150 C   0  0
    2.3200   -1.5840   -4.0820 F   0  0
    0.1740   -1.4650   -3.4550 F   0  0
    1.7500   -2.0000   -1.9570 F   0  0
   -0.7280    0.2700   -1.9220 C   0  0
   -2.1190    0.4180   -2.1540 N   0  0
   -0.5470   -0.6480   -0.8690 C   0  0
   -2.7620   -0.4080   -1.2480 C   0  0
   -1.7910   -1.0250   -0.5000 C   0  0
   -4.1110   -0.7050   -0.9770 C   0  0
   -2.1350   -1.9450    0.5310 C   0  0
   -4.5140   -1.5860    0.0040 N   0  0
   -3.5230   -2.2070    0.7580 C   0  0
   -3.8890   -3.0680    1.7210 N   0  0
   -2.9450   -4.0740    2.2700 C   0  0
   -5.2580   -3.0660    2.2950 C   0  0
   -3.6190   -5.4550    2.4200 C   0  0
   -5.8070   -4.5040    2.4430 C   0  0
   -4.8610   -5.3380    3.1040 O   0  0
    0.6890    4.0350    1.1760 H   0  0
    0.8240    3.7340   -0.5550 H   0  0
    0.7420    5.3890    0.0490 H   0  0
    4.6520    4.0610    2.5290 H   0  0
    3.4570   -0.3750    0.6270 H   0  0
    5.5490    1.9840    3.5550 H   0  0
    4.9490   -0.2320    2.6020 H   0  0
    1.9960   -0.4710   -0.7070 H   0  0
    3.4120   -0.0310   -1.4920 H   0  0
    2.0510    3.7250   -1.4430 H   0  0
    2.2440    2.5290   -2.7250 H   0  0
    3.6390    3.0370   -1.7750 H   0  0
    1.2110    2.5530    0.9200 H   0  0
    0.2440    2.3070   -0.5490 H   0  0
    0.6680    0.9380    0.4770 H   0  0
    1.9770    1.5140   -4.1430 H   0  0
   -0.0290    1.1760   -3.7310 H   0  0
    0.4670    2.0060   -2.2950 H   0  0
   -2.5510    1.0000   -2.8360 H   0  0
    0.3950   -0.9800   -0.4470 H   0  0
   -4.8730   -0.2190   -1.5680 H   0  0
   -1.3630   -2.4260    1.1190 H   0  0
   -2.0570   -4.1640    1.6410 H   0  0
   -2.6040   -3.7230    3.2440 H   0  0
   -5.9380   -2.4730    1.6840 H   0  0
   -5.2150   -2.5860    3.2730 H   0  0
   -2.9820   -6.1370    2.9820 H   0  0
   -3.8030   -5.9100    1.4450 H   0  0
   -6.7290   -4.5060    3.0220 H   0  0
   -6.0310   -4.9400    1.4690 H   0  0
  1  2  2  0
  1  3  2  0
  1  4  1  0
  1  5  1  0
  4  6  2  0
  4  7  1  0
  6  8  1  0
  6  9  1  0
  7 10  2  0
  8 11  2  0
  9 12  1  0
  9 13  1  0
  9 14  1  0
 12 15  1  0
 15 16  1  0
 15 17  1  0
 15 18  1  0
 17 19  1  0
 17 20  1  0
 17 21  1  0
 18 22  1  0
 22 23  1  0
 22 24  2  0
 23 25  1  0
 24 26  1  0
 25 27  1  0
 26 28  1  0
 27 29  2  0
 28 30  2  0
 30 31  1  0
 31 32  1  0
 31 33  1  0
 32 34  1  0
 33 35  1  0
 34 36  1  0
 10 11  1  0
 25 26  2  0
 29 30  1  0
 35 36  1  0
  5 37  1  0
  5 38  1  0
  5 39  1  0
  7 40  1  0
  8 41  1  0
 10 42  1  0
 11 43  1  0
 12 44  1  0
 12 45  1  0
 13 46  1  0
 13 47  1  0
 13 48  1  0
 14 49  1  0
 14 50  1  0
 14 51  1  0
 16 52  1  0
 18 53  1  0
 18 54  1  0
 23 55  1  0
 24 56  1  0
 27 57  1  0
 28 58  1  0
 32 59  1  0
 32 60  1  0
 33 61  1  0
 33 62  1  0
 34 63  1  0
 34 64  1  0
 35 65  1  0
 35 66  1  0
M  END
> <Name>
CHEMBL3358937

> <IC50 nM>
10

> <Molecule_ChEMBL_ID>
CHEMBL3358937

> <Smiles>
CC(C)(CC(O)(Cc1cc2cc(N3CCOCC3)ncc2[nH]1)C(F)(F)F)c1ccccc1S(C)(=O)=O

$$$$
CHEMBL556793
  SciTegic08162514323D

189197  0  0  1  0            999 V2000
   -2.9730    3.1990    9.8360 S   0  0
   -3.1060    1.5430   10.0860 C   0  0
   -4.2770    0.8500    9.9880 N   0  0
   -2.0510    0.7360   10.4080 N   0  0
   -5.5140    1.5660    9.6490 C   0  0
   -0.7110    1.3200   10.5550 C   0  0
   -6.7050    0.6090    9.5920 C   0  0
    0.3180    0.2500   10.9160 C   0  0
   -8.2330    1.4940    9.1700 S   0  0
    1.7290    0.8180   11.0780 C   0  0
   -9.3810    0.0900    9.1950 C   0  0
    2.6870   -0.2540   11.2850 N   0  0
  -10.7700    0.5700    8.8650 C   0  0
    4.0370    0.2110   11.0080 C   0  0
    2.5960   -0.7660   12.6430 C   0  0
  -10.9940    1.7460    8.6920 O   0  0
  -11.8710   -0.4570    8.7600 C   0  0  2  0  0  0
    4.3160    0.1740    9.5060 C   0  0
  -11.7680   -1.0450    7.4730 O   0  0
  -13.2930    0.1070    8.9900 C   0  0  2  0  0  0
  -11.8130   -1.5490    9.8560 C   0  0  1  0  0  0
    5.7460    0.5900    9.1600 C   0  0
  -14.1190   -1.1800    9.1210 C   0  0  1  0  0  0
  -13.9320    0.9470    7.8690 C   0  0
  -13.2600    0.8830   10.3200 C   0  0
  -13.2560   -2.0550   10.0310 C   0  0
  -10.8240   -2.6880    9.6060 C   0  0
    5.9750    0.5430    7.7090 N   0  0
  -15.5590   -0.8970    9.5880 C   0  0  1  0  0  0
  -15.4160    1.2810    8.1700 C   0  0  1  0  0  0
    7.1990    0.8830    7.2110 C   0  0
  -16.2820    0.0370    8.5720 C   0  0  1  0  0  0
  -16.3300   -2.2190    9.7790 C   0  0
  -15.4630    2.2910    9.1580 O   0  0
    8.0900    1.2210    7.9570 O   0  0
    7.4140    0.8300    5.7230 C   0  0
  -16.4120   -0.6800    7.3990 F   0  0
  -17.7370    0.3550    9.0680 C   0  0  2  0  0  0
  -17.7760   -1.9750   10.2350 C   0  0
    8.8460    1.1970    5.3260 C   0  0
  -18.4930   -0.9360    9.3890 C   0  0
  -18.4710    1.2440    8.0680 C   0  0
  -17.7310    1.1290   10.3950 C   0  0
    9.0200    1.1370    3.8670 N   0  0
  -19.7540   -1.1600    8.9590 C   0  0
  -19.7290    0.9980    7.6560 C   0  0
   10.2380    1.4360    3.3260 C   0  0
  -20.4610   -0.1820    8.1290 C   0  0
   11.1640    1.7440    4.0370 O   0  0
   10.4140    1.3770    1.8810 C   0  0
  -21.6230   -0.3420    7.8340 O   0  0
   11.5740    1.6480    1.2130 N   0  0
    9.4160    1.0310    0.9650 C   0  0
   11.3200    1.4790   -0.1150 C   0  0
   12.8610    2.0490    1.8050 C   0  0
    9.9920    1.0960   -0.3010 C   0  0
    9.3280    0.8160   -1.5820 N   0  0
    8.0120    0.4490   -1.6060 C   0  0
    7.3870    0.3540   -0.5740 O   0  0
    7.3650    0.1760   -2.8810 C   0  0
    6.0610   -0.1990   -3.0430 N   0  0
    7.9880    0.2560   -4.1310 C   0  0
    5.8540   -0.3550   -4.3810 C   0  0
    5.0610   -0.3970   -1.9820 C   0  0
    7.0310   -0.0820   -5.0800 C   0  0
    7.2210   -0.1370   -6.5370 N   0  0
    8.4380    0.1600   -7.0800 C   0  0
    9.3630    0.4690   -6.3670 O   0  0
    8.6150    0.1020   -8.5240 C   0  0
    9.7750    0.3730   -9.1940 N   0  0
    7.6150   -0.2440   -9.4420 C   0  0
    9.5220    0.2030  -10.5200 C   0  0
   11.0610    0.7730   -8.6000 C   0  0
    8.1910   -0.1800  -10.7050 C   0  0
    7.5270   -0.4590  -11.9880 N   0  0
    6.2130   -0.8260  -12.0100 C   0  0
    5.5880   -0.9220  -10.9810 O   0  0
    5.5640   -1.1000  -13.2850 C   0  0
    4.2620   -1.4750  -13.4490 N   0  0
    6.1900   -1.0200  -14.5350 C   0  0
    4.0550   -1.6310  -14.7850 C   0  0
    3.2620   -1.6720  -12.3890 C   0  0
    5.2310   -1.3570  -15.4850 C   0  0
    5.4200   -1.4120  -16.9420 N   0  0
    6.6390   -1.1150  -17.4850 C   0  0
    7.5650   -0.8050  -16.7720 O   0  0
    6.7990   -1.1820  -18.9810 C   0  0
    8.2270   -0.8670  -19.4280 C   0  0
    8.4000   -0.9450  -20.9440 C   0  0
    9.7830   -0.6330  -21.3320 N   0  0
   10.1290   -0.6520  -22.6550 C   0  0
    9.3050   -0.9240  -23.4960 O   0  0
   11.4980   -0.3460  -23.0430 C   0  0
   12.4980   -0.0290  -22.1720 N   0  0
   11.9690   -0.3300  -24.3270 N   0  0
   13.6040    0.1860  -22.9120 C   0  0
   13.2780    0.0000  -24.2500 C   0  0
   11.2110   -0.6150  -25.5530 C   0  0
   -4.2930   -0.1390   10.1490 H   0  0
   -2.1990   -0.2440   10.5430 H   0  0
   -5.6880    2.3540   10.3830 H   0  0
   -5.3830    2.0740    8.6930 H   0  0
   -0.7400    2.1000   11.3150 H   0  0
   -0.4360    1.8200    9.6250 H   0  0
   -6.5290   -0.1820    8.8610 H   0  0
   -6.8320    0.0960   10.5450 H   0  0
    0.3110   -0.5570   10.1840 H   0  0
    0.0140   -0.2890   11.8130 H   0  0
    1.7700    1.5100   11.9200 H   0  0
    2.0140    1.3960   10.2010 H   0  0
   -9.0630   -0.6520    8.4630 H   0  0
   -9.3730   -0.3690   10.1840 H   0  0
    4.7520   -0.4100   11.5470 H   0  0
    4.1620    1.2190   11.3990 H   0  0
    1.6110   -1.1480   12.9100 H   0  0
    2.8460    0.0270   13.3480 H   0  0
    3.3140   -1.5720   12.7780 H   0  0
    3.5960    0.7870    8.9650 H   0  0
    4.0920   -0.8110    9.0960 H   0  0
  -10.8730   -1.4120    7.3970 H   0  0
  -11.5240   -1.0840   10.7890 H   0  0
    6.4670   -0.0590    9.6580 H   0  0
    5.9530    1.5980    9.5240 H   0  0
  -14.1720   -1.6680    8.1560 H   0  0
  -13.8910    0.3930    6.9300 H   0  0
  -13.3560    1.8590    7.7030 H   0  0
  -14.2620    1.0840   10.7010 H   0  0
  -12.7520    1.8400   10.1970 H   0  0
  -12.7210    0.3180   11.0820 H   0  0
  -13.3730   -3.0980    9.7740 H   0  0
  -13.5630   -1.9490   11.0610 H   0  0
  -10.8190   -3.3870   10.4420 H   0  0
  -11.0800   -3.2290    8.6930 H   0  0
   -9.8110   -2.3010    9.4880 H   0  0
    5.2380    0.2640    7.0920 H   0  0
  -15.5200   -0.3930   10.5570 H   0  0
  -15.8320    1.7380    7.2720 H   0  0
  -16.3340   -2.7930    8.8520 H   0  0
  -15.8320   -2.8460   10.5220 H   0  0
  -15.7950    3.0960    8.7310 H   0  0
    7.2560   -0.1880    5.3610 H   0  0
    6.6970    1.4790    5.2210 H   0  0
  -18.3230   -2.9180   10.2270 H   0  0
  -17.7740   -1.6330   11.2700 H   0  0
    9.5610    0.5270    5.8010 H   0  0
    9.0960    2.1990    5.6760 H   0  0
  -17.9730    2.1170    7.6680 H   0  0
  -18.6860    1.0530   10.9140 H   0  0
  -17.5300    2.1880   10.2230 H   0  0
  -16.9570    0.7480   11.0610 H   0  0
    8.2540    0.8810    3.2770 H   0  0
  -20.2580   -2.0720    9.2330 H   0  0
  -20.2000    1.6820    6.9670 H   0  0
    8.3930    0.7640    1.1970 H   0  0
   12.0690    1.6290   -0.8830 H   0  0
   12.8480    2.1270    2.8930 H   0  0
   13.1580    3.0180    1.4040 H   0  0
   13.6290    1.3240    1.5310 H   0  0
    9.8440    0.8960   -2.4360 H   0  0
    9.0200    0.5270   -4.3200 H   0  0
    4.9000   -0.6500   -4.7990 H   0  0
    5.4360   -0.2170   -0.9750 H   0  0
    4.6880   -1.4200   -2.0220 H   0  0
    4.2170    0.2730   -2.1480 H   0  0
    6.4550   -0.3950   -7.1270 H   0  0
    6.5920   -0.5120   -9.2090 H   0  0
   10.2700    0.3540  -11.2870 H   0  0
   11.0490    0.8520   -7.5140 H   0  0
   11.3600    1.7420   -9.0000 H   0  0
   11.8280    0.0490   -8.8730 H   0  0
    8.0430   -0.3790  -12.8400 H   0  0
    7.2210   -0.7480  -14.7250 H   0  0
    3.1020   -1.9260  -15.2050 H   0  0
    3.6370   -1.4920  -11.3790 H   0  0
    2.8870   -2.6950  -12.4280 H   0  0
    2.4180   -1.0020  -12.5530 H   0  0
    4.6540   -1.6700  -17.5330 H   0  0
    6.5900   -2.1930  -19.3300 H   0  0
    6.0880   -0.5100  -19.4590 H   0  0
    8.9420   -1.5180  -18.9240 H   0  0
    8.5410    0.1070  -19.0530 H   0  0
    7.7230   -0.2540  -21.4460 H   0  0
    8.1390   -1.9380  -21.3110 H   0  0
   10.4650   -0.4100  -20.6370 H   0  0
   14.5650    0.4570  -22.4940 H   0  0
   13.9280    0.0920  -25.1100 H   0  0
   10.1620   -0.8610  -25.3870 H   0  0
   11.6700   -1.4530  -26.0790 H   0  0
   11.2480    0.2520  -26.2130 H   0  0
  1  2  2  0
  2  3  1  0
  2  4  1  0
  3  5  1  0
  4  6  1  0
  5  7  1  0
  6  8  1  0
  7  9  1  0
  8 10  1  0
  9 11  1  0
 10 12  1  0
 11 13  1  0
 12 14  1  0
 12 15  1  0
 13 16  2  0
 13 17  1  0
 14 18  1  0
 17 19  1  0
 17 20  1  0
 17 21  1  0
 18 22  1  0
 20 23  1  0
 20 24  1  0
 20 25  1  0
 21 26  1  0
 21 27  1  0
 22 28  1  0
 23 29  1  0
 24 30  1  0
 28 31  1  0
 29 32  1  0
 29 33  1  0
 30 34  1  0
 31 35  2  0
 31 36  1  0
 32 37  1  0
 32 38  1  0
 33 39  1  0
 36 40  1  0
 38 41  1  0
 38 42  1  0
 38 43  1  0
 40 44  1  0
 41 45  2  0
 42 46  2  0
 44 47  1  0
 45 48  1  0
 47 49  2  0
 47 50  1  0
 48 51  2  0
 50 52  1  0
 50 53  2  0
 52 54  1  0
 52 55  1  0
 53 56  1  0
 56 57  1  0
 57 58  1  0
 58 59  2  0
 58 60  1  0
 60 61  1  0
 60 62  2  0
 61 63  1  0
 61 64  1  0
 62 65  1  0
 65 66  1  0
 66 67  1  0
 67 68  2  0
 67 69  1  0
 69 70  1  0
 69 71  2  0
 70 72  1  0
 70 73  1  0
 71 74  1  0
 74 75  1  0
 75 76  1  0
 76 77  2  0
 76 78  1  0
 78 79  1  0
 78 80  2  0
 79 81  1  0
 79 82  1  0
 80 83  1  0
 83 84  1  0
 84 85  1  0
 85 86  2  0
 85 87  1  0
 87 88  1  0
 88 89  1  0
 89 90  1  0
 90 91  1  0
 91 92  2  0
 91 93  1  0
 93 94  2  0
 93 95  1  0
 94 96  1  0
 95 97  1  0
 95 98  1  0
 23 26  1  0
 30 32  1  0
 39 41  1  0
 46 48  1  0
 54 56  2  0
 63 65  2  0
 72 74  2  0
 81 83  2  0
 96 97  2  0
  3 99  1  0
  4100  1  0
  5101  1  0
  5102  1  0
  6103  1  0
  6104  1  0
  7105  1  0
  7106  1  0
  8107  1  0
  8108  1  0
 10109  1  0
 10110  1  0
 11111  1  0
 11112  1  0
 14113  1  0
 14114  1  0
 15115  1  0
 15116  1  0
 15117  1  0
 18118  1  0
 18119  1  0
 19120  1  0
 21121  1  0
 22122  1  0
 22123  1  0
 23124  1  0
 24125  1  0
 24126  1  0
 25127  1  0
 25128  1  0
 25129  1  0
 26130  1  0
 26131  1  0
 27132  1  0
 27133  1  0
 27134  1  0
 28135  1  0
 29136  1  0
 30137  1  0
 33138  1  0
 33139  1  0
 34140  1  0
 36141  1  0
 36142  1  0
 39143  1  0
 39144  1  0
 40145  1  0
 40146  1  0
 42147  1  0
 43148  1  0
 43149  1  0
 43150  1  0
 44151  1  0
 45152  1  0
 46153  1  0
 53154  1  0
 54155  1  0
 55156  1  0
 55157  1  0
 55158  1  0
 57159  1  0
 62160  1  0
 63161  1  0
 64162  1  0
 64163  1  0
 64164  1  0
 66165  1  0
 71166  1  0
 72167  1  0
 73168  1  0
 73169  1  0
 73170  1  0
 75171  1  0
 80172  1  0
 81173  1  0
 82174  1  0
 82175  1  0
 82176  1  0
 84177  1  0
 87178  1  0
 87179  1  0
 88180  1  0
 88181  1  0
 89182  1  0
 89183  1  0
 90184  1  0
 96185  1  0
 97186  1  0
 98187  1  0
 98188  1  0
 98189  1  0
M  END
> <Name>
CHEMBL556793

> <IC50 nM>
16

> <Molecule_ChEMBL_ID>
CHEMBL556793

> <Smiles>
C[C@@H]1C[C@H]2[C@@H]3CCC4=CC(=O)C=C[C@]4(C)[C@@]3(F)[C@@H](O)C[C@]2(C)[C@@]1(O)C(=O)CSCCNC(=S)NCCCN(C)CCCNC(=O)CCNC(=O)c1cc(NC(=O)c2cc(NC(=O)c3cc(NC(=O)c4cc(NC(=O)CCCNC(=O)c5nccn5C)cn4C)cn3C)cn2C)cn1
C

$$$$
CHEMBL552769
  SciTegic08162514323D

204213  0  0  1  0            999 V2000
   -4.1900    3.1150   11.2950 S   0  0
   -4.3200    1.4590   11.5450 C   0  0
   -5.4920    0.7640   11.4490 N   0  0
   -3.2680    0.6500   11.8670 N   0  0
   -6.7310    1.4800   11.1080 C   0  0
   -1.9280    1.2360   12.0140 C   0  0
   -7.9200    0.5230   11.0510 C   0  0
   -0.8980    0.1640   12.3750 C   0  0
   -9.4470    1.4100   10.6290 S   0  0
    0.5120    0.7320   12.5370 C   0  0
  -10.5980    0.0040   10.6550 C   0  0
    1.4730   -0.3380   12.7440 N   0  0
  -11.9850    0.4860   10.3240 C   0  0
    2.8200    0.1250   12.4670 C   0  0
    1.3790   -0.8500   14.1020 C   0  0
  -12.2110    1.6600   10.1510 O   0  0
  -13.0880   -0.5430   10.2190 C   0  0  2  0  0  0
    3.1000    0.0900   10.9650 C   0  0
  -12.9850   -1.1310    8.9320 O   0  0
  -14.5100    0.0230   10.4490 C   0  0  2  0  0  0
  -13.0290   -1.6350   11.3150 C   0  0  1  0  0  0
    4.5310    0.5060   10.6210 C   0  0
  -15.3360   -1.2660   10.5800 C   0  0  1  0  0  0
  -15.1490    0.8610    9.3280 C   0  0
  -14.4750    0.7990   11.7800 C   0  0
  -14.4730   -2.1390   11.4900 C   0  0
  -12.0390   -2.7730   11.0650 C   0  0
    4.7580    0.4590    9.1680 N   0  0
  -16.7740   -0.9820   11.0490 C   0  0  1  0  0  0
  -16.6330    1.1950    9.6290 C   0  0  1  0  0  0
    5.9840    0.7990    8.6700 C   0  0
  -17.4960   -0.0490   10.0310 C   0  0  1  0  0  0
  -17.5470   -2.3050   11.2390 C   0  0
  -16.6800    2.2070   10.6170 O   0  0
    6.8730    1.1370    9.4160 O   0  0
    6.1990    0.7440    7.1820 C   0  0
  -17.6290   -0.7660    8.8580 F   0  0
  -18.9510    0.2710   10.5280 C   0  0  2  0  0  0
  -18.9920   -2.0610   11.6940 C   0  0
    7.6290    1.1130    6.7850 C   0  0
  -19.7090   -1.0220   10.8480 C   0  0
  -19.6880    1.1600    9.5280 C   0  0
  -18.9480    1.0450   11.8540 C   0  0
    7.8050    1.0530    5.3280 N   0  0
  -20.9690   -1.2440   10.4200 C   0  0
  -20.9460    0.9120    9.1150 C   0  0
    9.0220    1.3500    4.7850 C   0  0
  -21.6780   -0.2680    9.5880 C   0  0
    9.9470    1.6600    5.4980 O   0  0
    9.1990    1.2910    3.3400 C   0  0
  -22.8400   -0.4280    9.2930 O   0  0
   10.3600    1.5630    2.6720 N   0  0
    8.1990    0.9450    2.4240 C   0  0
   10.1060    1.3950    1.3460 C   0  0
   11.6450    1.9650    3.2640 C   0  0
    8.7760    1.0120    1.1600 C   0  0
    8.1110    0.7320   -0.1230 N   0  0
    6.7970    0.3650   -0.1460 C   0  0
    6.1720    0.2700    0.8850 O   0  0
    6.1490    0.0900   -1.4220 C   0  0
    4.8460   -0.2830   -1.5840 N   0  0
    6.7740    0.1700   -2.6720 C   0  0
    4.6390   -0.4410   -2.9220 C   0  0
    3.8460   -0.4820   -0.5230 C   0  0
    5.8150   -0.1660   -3.6210 C   0  0
    6.0040   -0.2230   -5.0780 N   0  0
    7.2230    0.0740   -5.6190 C   0  0
    8.1490    0.3850   -4.9080 O   0  0
    7.4010    0.0160   -7.0650 C   0  0
    8.5590    0.2870   -7.7320 N   0  0
    6.4000   -0.3300   -7.9820 C   0  0
    8.3050    0.1190   -9.0610 C   0  0
    9.8460    0.6890   -7.1410 C   0  0
    6.9770   -0.2640   -9.2460 C   0  0
    6.3130   -0.5430  -10.5270 N   0  0
    4.9960   -0.9100  -10.5510 C   0  0
    4.3730   -1.0060   -9.5200 O   0  0
    4.3500   -1.1860  -11.8260 C   0  0
    3.0450   -1.5590  -11.9900 N   0  0
    4.9750   -1.1050  -13.0760 C   0  0
    2.8380   -1.7150  -13.3260 C   0  0
    2.0450   -1.7560  -10.9280 C   0  0
    4.0160   -1.4410  -14.0260 C   0  0
    4.2050   -1.4980  -15.4830 N   0  0
    5.4220   -1.2010  -16.0260 C   0  0
    6.3480   -0.8910  -15.3130 O   0  0
    5.5840   -1.2680  -17.5200 C   0  0
    7.0120   -0.9510  -17.9690 C   0  0
    7.1840   -1.0290  -19.4850 C   0  0
    8.5680   -0.7190  -19.8730 N   0  0
    8.9140   -0.7380  -21.1960 C   0  0
    8.0900   -1.0080  -22.0370 O   0  0
   10.2830   -0.4300  -21.5840 C   0  0
   10.7600   -0.4140  -22.8660 N   0  0
   11.3150   -0.1040  -20.6980 C   0  0
   12.0780   -0.0820  -22.7970 C   0  0
    9.9980   -0.6990  -24.0920 C   0  0
   12.4510    0.1150  -21.4670 C   0  0
   13.7870    0.4860  -20.9750 N   0  0
   14.0020    0.6450  -19.6350 C   0  0
   13.0980    0.4840  -18.8500 O   0  0
   15.3280    1.0120  -19.1580 C   0  0
   16.4100    1.2150  -19.9610 N   0  0
   15.6700    1.1990  -17.8500 N   0  0
   17.4400    1.5330  -19.1530 C   0  0
   16.9830    1.5250  -17.8400 C   0  0
   14.7930    1.0760  -16.6740 C   0  0
   -5.5080   -0.2230   11.6100 H   0  0
   -3.4160   -0.3280   12.0020 H   0  0
   -6.9020    2.2680   11.8420 H   0  0
   -6.5980    1.9880   10.1530 H   0  0
   -1.9570    2.0160   12.7760 H   0  0
   -1.6520    1.7360   11.0840 H   0  0
   -7.7460   -0.2660   10.3210 H   0  0
   -8.0490    0.0120   12.0040 H   0  0
   -0.9060   -0.6410   11.6430 H   0  0
   -1.2010   -0.3730   13.2740 H   0  0
    0.5550    1.4260   13.3790 H   0  0
    0.7990    1.3130   11.6600 H   0  0
  -10.2790   -0.7380    9.9220 H   0  0
  -10.5900   -0.4550   11.6430 H   0  0
    3.5370   -0.4940   13.0080 H   0  0
    2.9450    1.1350   12.8580 H   0  0
    0.3950   -1.2340   14.3690 H   0  0
    1.6310   -0.0570   14.8070 H   0  0
    2.1000   -1.6560   14.2370 H   0  0
    2.3790    0.7030   10.4240 H   0  0
    2.8770   -0.8970   10.5550 H   0  0
  -12.0900   -1.4960    8.8560 H   0  0
  -12.7400   -1.1700   12.2480 H   0  0
    5.2520   -0.1450   11.1170 H   0  0
    4.7360    1.5120   10.9830 H   0  0
  -15.3890   -1.7540    9.6150 H   0  0
  -15.1080    0.3070    8.3890 H   0  0
  -14.5710    1.7750    9.1620 H   0  0
  -15.4770    1.0000   12.1600 H   0  0
  -13.9670    1.7540   11.6560 H   0  0
  -13.9380    0.2320   12.5410 H   0  0
  -14.5880   -3.1840   11.2330 H   0  0
  -14.7800   -2.0330   12.5200 H   0  0
  -12.0330   -3.4710   11.9010 H   0  0
  -12.2970   -3.3130   10.1530 H   0  0
  -11.0280   -2.3850   10.9470 H   0  0
    4.0240    0.1800    8.5510 H   0  0
  -16.7350   -0.4790   12.0160 H   0  0
  -17.0490    1.6540    8.7310 H   0  0
  -17.5490   -2.8790   10.3110 H   0  0
  -17.0470   -2.9300   11.9810 H   0  0
  -17.0100    3.0120   10.1900 H   0  0
    6.0390   -0.2710    6.8200 H   0  0
    5.4810    1.3930    6.6800 H   0  0
  -19.5370   -3.0040   11.6880 H   0  0
  -18.9890   -1.7190   12.7290 H   0  0
    8.3460    0.4430    7.2600 H   0  0
    7.8810    2.1150    7.1350 H   0  0
  -19.1880    2.0310    9.1270 H   0  0
  -19.9030    0.9670   12.3730 H   0  0
  -18.7460    2.1020   11.6820 H   0  0
  -18.1740    0.6620   12.5200 H   0  0
    7.0390    0.7970    4.7360 H   0  0
  -21.4750   -2.1580   10.6920 H   0  0
  -21.4140    1.5960    8.4260 H   0  0
    7.1760    0.6800    2.6560 H   0  0
   10.8540    1.5430    0.5780 H   0  0
   11.6330    2.0410    4.3520 H   0  0
   11.9440    2.9340    2.8630 H   0  0
   12.4120    1.2400    2.9900 H   0  0
    8.6270    0.8110   -0.9770 H   0  0
    7.8050    0.4410   -2.8590 H   0  0
    3.6860   -0.7360   -3.3400 H   0  0
    4.2210   -0.3030    0.4840 H   0  0
    3.4710   -1.5040   -0.5620 H   0  0
    3.0020    0.1890   -0.6890 H   0  0
    5.2380   -0.4790   -5.6680 H   0  0
    5.3770   -0.5960   -7.7500 H   0  0
    9.0530    0.2700   -9.8280 H   0  0
    9.8320    0.7660   -6.0530 H   0  0
   10.1430    1.6580   -7.5410 H   0  0
   10.6130   -0.0350   -7.4140 H   0  0
    6.8280   -0.4650  -11.3810 H   0  0
    6.0040   -0.8340  -13.2660 H   0  0
    1.8850   -2.0120  -13.7460 H   0  0
    2.4200   -1.5780   -9.9200 H   0  0
    1.6720   -2.7790  -10.9690 H   0  0
    1.2010   -1.0860  -11.0940 H   0  0
    3.4400   -1.7540  -16.0740 H   0  0
    5.3750   -2.2770  -17.8710 H   0  0
    4.8710   -0.5960  -18.0000 H   0  0
    7.7250   -1.6040  -17.4650 H   0  0
    7.3260    0.0210  -17.5940 H   0  0
    6.5080   -0.3380  -19.9870 H   0  0
    6.9240   -2.0220  -19.8520 H   0  0
    9.2500   -0.4940  -19.1780 H   0  0
   11.2400   -0.0370  -19.6190 H   0  0
   12.7090    0.0040  -23.6720 H   0  0
    8.9510   -0.9450  -23.9220 H   0  0
   10.4570   -1.5370  -24.6160 H   0  0
   10.0350    0.1680  -24.7520 H   0  0
   14.5350    0.6190  -21.6230 H   0  0
   18.4400    1.7540  -19.5060 H   0  0
   17.5470    1.7360  -16.9420 H   0  0
   13.7660    0.8030  -16.9100 H   0  0
   14.7720    2.0230  -16.1370 H   0  0
   15.1940    0.3180  -16.0000 H   0  0
  1  2  2  0
  2  3  1  0
  2  4  1  0
  3  5  1  0
  4  6  1  0
  5  7  1  0
  6  8  1  0
  7  9  1  0
  8 10  1  0
  9 11  1  0
 10 12  1  0
 11 13  1  0
 12 14  1  0
 12 15  1  0
 13 16  2  0
 13 17  1  0
 14 18  1  0
 17 19  1  0
 17 20  1  0
 17 21  1  0
 18 22  1  0
 20 23  1  0
 20 24  1  0
 20 25  1  0
 21 26  1  0
 21 27  1  0
 22 28  1  0
 23 29  1  0
 24 30  1  0
 28 31  1  0
 29 32  1  0
 29 33  1  0
 30 34  1  0
 31 35  2  0
 31 36  1  0
 32 37  1  0
 32 38  1  0
 33 39  1  0
 36 40  1  0
 38 41  1  0
 38 42  1  0
 38 43  1  0
 40 44  1  0
 41 45  2  0
 42 46  2  0
 44 47  1  0
 45 48  1  0
 47 49  2  0
 47 50  1  0
 48 51  2  0
 50 52  1  0
 50 53  2  0
 52 54  1  0
 52 55  1  0
 53 56  1  0
 56 57  1  0
 57 58  1  0
 58 59  2  0
 58 60  1  0
 60 61  1  0
 60 62  2  0
 61 63  1  0
 61 64  1  0
 62 65  1  0
 65 66  1  0
 66 67  1  0
 67 68  2  0
 67 69  1  0
 69 70  1  0
 69 71  2  0
 70 72  1  0
 70 73  1  0
 71 74  1  0
 74 75  1  0
 75 76  1  0
 76 77  2  0
 76 78  1  0
 78 79  1  0
 78 80  2  0
 79 81  1  0
 79 82  1  0
 80 83  1  0
 83 84  1  0
 84 85  1  0
 85 86  2  0
 85 87  1  0
 87 88  1  0
 88 89  1  0
 89 90  1  0
 90 91  1  0
 91 92  2  0
 91 93  1  0
 93 94  1  0
 93 95  2  0
 94 96  1  0
 94 97  1  0
 95 98  1  0
 98 99  1  0
 99100  1  0
100101  2  0
100102  1  0
102103  2  0
102104  1  0
103105  1  0
104106  1  0
104107  1  0
 23 26  1  0
 30 32  1  0
 39 41  1  0
 46 48  1  0
 54 56  2  0
 63 65  2  0
 72 74  2  0
 81 83  2  0
 96 98  2  0
105106  2  0
  3108  1  0
  4109  1  0
  5110  1  0
  5111  1  0
  6112  1  0
  6113  1  0
  7114  1  0
  7115  1  0
  8116  1  0
  8117  1  0
 10118  1  0
 10119  1  0
 11120  1  0
 11121  1  0
 14122  1  0
 14123  1  0
 15124  1  0
 15125  1  0
 15126  1  0
 18127  1  0
 18128  1  0
 19129  1  0
 21130  1  0
 22131  1  0
 22132  1  0
 23133  1  0
 24134  1  0
 24135  1  0
 25136  1  0
 25137  1  0
 25138  1  0
 26139  1  0
 26140  1  0
 27141  1  0
 27142  1  0
 27143  1  0
 28144  1  0
 29145  1  0
 30146  1  0
 33147  1  0
 33148  1  0
 34149  1  0
 36150  1  0
 36151  1  0
 39152  1  0
 39153  1  0
 40154  1  0
 40155  1  0
 42156  1  0
 43157  1  0
 43158  1  0
 43159  1  0
 44160  1  0
 45161  1  0
 46162  1  0
 53163  1  0
 54164  1  0
 55165  1  0
 55166  1  0
 55167  1  0
 57168  1  0
 62169  1  0
 63170  1  0
 64171  1  0
 64172  1  0
 64173  1  0
 66174  1  0
 71175  1  0
 72176  1  0
 73177  1  0
 73178  1  0
 73179  1  0
 75180  1  0
 80181  1  0
 81182  1  0
 82183  1  0
 82184  1  0
 82185  1  0
 84186  1  0
 87187  1  0
 87188  1  0
 88189  1  0
 88190  1  0
 89191  1  0
 89192  1  0
 90193  1  0
 95194  1  0
 96195  1  0
 97196  1  0
 97197  1  0
 97198  1  0
 99199  1  0
105200  1  0
106201  1  0
107202  1  0
107203  1  0
107204  1  0
M  END
> <Name>
CHEMBL552769

> <IC50 nM>
22

> <Molecule_ChEMBL_ID>
CHEMBL552769

> <Smiles>
C[C@@H]1C[C@H]2[C@@H]3CCC4=CC(=O)C=C[C@]4(C)[C@@]3(F)[C@@H](O)C[C@]2(C)[C@@]1(O)C(=O)CSCCNC(=S)NCCCN(C)CCCNC(=O)CCNC(=O)c1cc(NC(=O)c2cc(NC(=O)c3cc(NC(=O)c4cc(NC(=O)CCCNC(=O)c5cc(NC(=O)c6nccn6C)cn5C)cn
4C)cn3C)cn2C)cn1C

$$$$
CHEMBL563916
  SciTegic08162514323D

109112  0  0  1  0            999 V2000
    3.1560    3.0040    0.9510 S   0  0
    3.0230    1.3480    1.2030 C   0  0
    1.8500    0.6540    1.1090 N   0  0
    4.0760    0.5390    1.5250 N   0  0
    0.6130    1.3710    0.7700 C   0  0
    5.4180    1.1250    1.6660 C   0  0
   -0.5780    0.4140    0.7170 C   0  0
    6.4470    0.0530    2.0290 C   0  0
   -2.1060    1.2990    0.2970 S   0  0
    7.8570    0.6210    2.1870 C   0  0
   -3.2560   -0.1050    0.3260 C   0  0
    8.8160   -0.4510    2.3980 N   0  0
   -4.6450    0.3770   -0.0020 C   0  0
   10.1660    0.0100    2.1170 C   0  0
    8.7250   -0.9550    3.7580 C   0  0
   -4.8690    1.5510   -0.1740 O   0  0
   -5.7460   -0.6520   -0.1070 C   0  0  2  0  0  0
   10.4430   -0.0350    0.6130 C   0  0
   -5.6430   -1.2400   -1.3950 O   0  0
   -7.1680   -0.0860    0.1230 C   0  0  2  0  0  0
   -5.6880   -1.7440    0.9880 C   0  0  1  0  0  0
   11.8750    0.3810    0.2660 C   0  0
   -7.9940   -1.3750    0.2540 C   0  0  1  0  0  0
   -7.8070    0.7520   -1.0000 C   0  0
   -7.1330    0.6900    1.4530 C   0  0
   -7.1310   -2.2480    1.1640 C   0  0
   -4.6970   -2.8830    0.7360 C   0  0
   12.1020    0.3220   -1.1860 N   0  0
   -9.4320   -1.0900    0.7210 C   0  0  1  0  0  0
   -9.2910    1.0860   -0.6970 C   0  0  1  0  0  0
   13.3260    0.6620   -1.6860 C   0  0
  -10.1550   -0.1580   -0.2950 C   0  0  1  0  0  0
  -10.2050   -2.4140    0.9120 C   0  0
   -9.3380    2.0980    0.2910 O   0  0
   14.2170    1.0040   -0.9430 O   0  0
   13.5410    0.5980   -3.1740 C   0  0
  -10.2870   -0.8750   -1.4690 F   0  0
  -11.6100    0.1620    0.2010 C   0  0  2  0  0  0
  -11.6510   -2.1700    1.3670 C   0  0
   14.9710    0.9630   -3.5740 C   0  0
  -12.3670   -1.1310    0.5210 C   0  0
  -12.3460    1.0510   -0.7990 C   0  0
  -11.6060    0.9360    1.5270 C   0  0
   15.1450    0.8930   -5.0310 N   0  0
  -13.6270   -1.3530    0.0920 C   0  0
  -13.6040    0.8030   -1.2110 C   0  0
   16.3620    1.1880   -5.5760 C   0  0
  -14.3360   -0.3770   -0.7400 C   0  0
   17.2890    1.5020   -4.8670 O   0  0
   16.5220    1.1110   -7.0720 C   0  0
  -15.4980   -0.5370   -1.0330 O   0  0
    1.8360   -0.3340    1.2710 H   0  0
    3.9280   -0.4390    1.6620 H   0  0
    0.4410    2.1580    1.5040 H   0  0
    0.7440    1.8770   -0.1880 H   0  0
    5.3910    1.9040    2.4280 H   0  0
    5.6910    1.6230    0.7360 H   0  0
   -0.4040   -0.3770   -0.0140 H   0  0
   -0.7050   -0.0980    1.6720 H   0  0
    6.4380   -0.7540    1.2970 H   0  0
    6.1450   -0.4840    2.9280 H   0  0
    7.9020    1.3170    3.0250 H   0  0
    8.1450    1.1950    1.3070 H   0  0
   -2.9400   -0.8480   -0.4060 H   0  0
   -3.2460   -0.5620    1.3140 H   0  0
   10.8810   -0.6050    2.6600 H   0  0
   10.2910    1.0240    2.5000 H   0  0
    7.7420   -1.3400    4.0270 H   0  0
    8.9770   -0.1600    4.4590 H   0  0
    9.4470   -1.7620    3.8950 H   0  0
    9.7230    0.5740    0.0680 H   0  0
   10.2210   -1.0230    0.2110 H   0  0
   -4.7480   -1.6030   -1.4730 H   0  0
   -5.3990   -1.2790    1.9220 H   0  0
   12.5960   -0.2660    0.7680 H   0  0
   12.0800    1.3910    0.6210 H   0  0
   -8.0470   -1.8630   -0.7110 H   0  0
   -7.7660    0.1970   -1.9380 H   0  0
   -7.2310    1.6660   -1.1640 H   0  0
   -8.1350    0.8930    1.8320 H   0  0
   -6.6250    1.6450    1.3300 H   0  0
   -6.5980    0.1230    2.2150 H   0  0
   -7.2480   -3.2930    0.9060 H   0  0
   -7.4380   -2.1430    2.1930 H   0  0
   -4.6930   -3.5800    1.5740 H   0  0
   -4.9550   -3.4220   -0.1740 H   0  0
   -3.6860   -2.4940    0.6210 H   0  0
   11.3650    0.0390   -1.8010 H   0  0
   -9.3950   -0.5880    1.6890 H   0  0
   -9.7070    1.5450   -1.5960 H   0  0
  -10.2070   -2.9880   -0.0160 H   0  0
   -9.7050   -3.0390    1.6520 H   0  0
   -9.6720    2.9010   -0.1370 H   0  0
   13.3810   -0.4220   -3.5290 H   0  0
   12.8220    1.2420   -3.6820 H   0  0
  -12.1980   -3.1130    1.3590 H   0  0
  -11.6470   -1.8280    2.4020 H   0  0
   15.6880    0.2970   -3.0960 H   0  0
   15.2210    1.9670   -3.2310 H   0  0
  -11.8480    1.9220   -1.1990 H   0  0
  -12.5610    0.8590    2.0450 H   0  0
  -11.4050    1.9920    1.3550 H   0  0
  -10.8320    0.5530    2.1930 H   0  0
   14.3790    0.6330   -5.6210 H   0  0
  -14.1330   -2.2680    0.3650 H   0  0
  -14.0740    1.4860   -1.9000 H   0  0
   17.5260    1.3610   -7.4140 H   0  0
   15.8240    1.7950   -7.5550 H   0  0
   16.2950    0.1040   -7.4180 H   0  0
  1  2  2  0
  2  3  1  0
  2  4  1  0
  3  5  1  0
  4  6  1  0
  5  7  1  0
  6  8  1  0
  7  9  1  0
  8 10  1  0
  9 11  1  0
 10 12  1  0
 11 13  1  0
 12 14  1  0
 12 15  1  0
 13 16  2  0
 13 17  1  0
 14 18  1  0
 17 19  1  0
 17 20  1  0
 17 21  1  0
 18 22  1  0
 20 23  1  0
 20 24  1  0
 20 25  1  0
 21 26  1  0
 21 27  1  0
 22 28  1  0
 23 29  1  0
 24 30  1  0
 28 31  1  0
 29 32  1  0
 29 33  1  0
 30 34  1  0
 31 35  2  0
 31 36  1  0
 32 37  1  0
 32 38  1  0
 33 39  1  0
 36 40  1  0
 38 41  1  0
 38 42  1  0
 38 43  1  0
 40 44  1  0
 41 45  2  0
 42 46  2  0
 44 47  1  0
 45 48  1  0
 47 49  2  0
 47 50  1  0
 48 51  2  0
 23 26  1  0
 30 32  1  0
 39 41  1  0
 46 48  1  0
  3 52  1  0
  4 53  1  0
  5 54  1  0
  5 55  1  0
  6 56  1  0
  6 57  1  0
  7 58  1  0
  7 59  1  0
  8 60  1  0
  8 61  1  0
 10 62  1  0
 10 63  1  0
 11 64  1  0
 11 65  1  0
 14 66  1  0
 14 67  1  0
 15 68  1  0
 15 69  1  0
 15 70  1  0
 18 71  1  0
 18 72  1  0
 19 73  1  0
 21 74  1  0
 22 75  1  0
 22 76  1  0
 23 77  1  0
 24 78  1  0
 24 79  1  0
 25 80  1  0
 25 81  1  0
 25 82  1  0
 26 83  1  0
 26 84  1  0
 27 85  1  0
 27 86  1  0
 27 87  1  0
 28 88  1  0
 29 89  1  0
 30 90  1  0
 33 91  1  0
 33 92  1  0
 34 93  1  0
 36 94  1  0
 36 95  1  0
 39 96  1  0
 39 97  1  0
 40 98  1  0
 40 99  1  0
 42100  1  0
 43101  1  0
 43102  1  0
 43103  1  0
 44104  1  0
 45105  1  0
 46106  1  0
 50107  1  0
 50108  1  0
 50109  1  0
M  END
> <Name>
CHEMBL563916

> <IC50 nM>
9.3

> <Molecule_ChEMBL_ID>
CHEMBL563916

> <Smiles>
CC(=O)NCCC(=O)NCCCN(C)CCCNC(=S)NCCSCC(=O)[C@@]1(O)[C@H](C)C[C@H]2[C@@H]3CCC4=CC(=O)C=C[C@]4(C)[C@@]3(F)[C@@H](O)C[C@@]21C

$$$$
CHEMBL556536
  SciTegic08162514323D

193204  0  0  1  0            999 V2000
  -12.7850    3.0330  -11.6160 F   0  0
  -12.6210    3.8360  -12.7290 C   0  0  1  0  0  0
  -14.0880    4.2340  -13.1490 C   0  0  1  0  0  0
  -11.5900    4.9550  -12.2820 C   0  0  2  0  0  0
  -11.9630    2.9490  -13.8340 C   0  0  1  0  0  0
  -14.8500    2.9980  -13.6700 C   0  0
  -14.8710    4.9200  -12.0160 C   0  0
  -14.0330    5.2360  -14.3070 C   0  0
  -12.1840    6.2010  -11.9850 O   0  0
  -10.4380    5.2400  -13.2780 C   0  0
  -10.5020    2.7130  -13.4340 C   0  0  2  0  0  0
  -12.7520    1.6700  -14.1100 C   0  0
  -16.1250    2.7170  -13.3190 C   0  0
  -14.1450    2.0450  -14.6160 C   0  0
  -16.1370    4.6110  -11.6800 C   0  0
   -9.7130    3.9820  -13.8130 C   0  0  2  0  0  0
   -9.6390    1.6020  -14.0160 C   0  0
  -16.8620    3.5390  -12.3600 C   0  0
   -8.3200    3.5880  -13.2720 C   0  0  2  0  0  0
   -9.5760    4.1060  -15.3440 C   0  0
   -8.2090    2.1040  -13.7290 C   0  0  1  0  0  0
  -18.0300    3.3340  -12.1310 O   0  0
   -8.3130    3.6880  -11.8540 O   0  0
   -7.1860    4.4550  -13.7680 C   0  0
   -7.4830    1.1680  -12.7580 C   0  0
   -7.3590    5.6250  -14.0120 O   0  0
   -5.9550    3.8890  -13.9360 N   0  0
   -4.8400    4.7170  -14.4180 C   0  0
   -3.5510    3.9020  -14.5100 C   0  0
   -3.0350    3.5800  -13.1720 N   0  0
   -1.9390    2.7730  -13.0510 C   0  0
   -1.3960    2.3280  -14.0350 O   0  0
   -1.4260    2.4510  -11.7250 C   0  0
   -2.1860    2.1950  -10.6210 N   0  0
   -0.0680    2.3570  -11.3930 C   0  0
   -1.3280    1.9410   -9.5940 C   0  0
   -3.6560    2.1910  -10.5430 C   0  0
   -0.0100    2.0350  -10.0410 C   0  0
    1.2070    1.8320   -9.2400 N   0  0
    1.1070    1.5160   -7.9140 C   0  0
    0.0210    1.4040   -7.3950 O   0  0
    2.3180    1.3160   -7.1310 C   0  0
    3.4650    2.0490   -7.2420 N   0  0
    2.4810    0.3400   -6.1430 C   0  0
    4.3520    1.5470   -6.3380 C   0  0
    3.7090    3.1700   -8.1640 C   0  0
    3.7700    0.4860   -5.6410 C   0  0
    4.3970   -0.3180   -4.5820 N   0  0
    5.6800   -0.0550   -4.1940 C   0  0
    6.3050    0.8380   -4.7150 O   0  0
    6.2930   -0.8590   -3.1450 C   0  0
    7.5720   -0.7230   -2.6860 N   0  0
    5.6540   -1.8950   -2.4510 C   0  0
    7.7500   -1.6560   -1.7110 C   0  0
    8.5760    0.2500   -3.1490 C   0  0
    6.5780   -2.3980   -1.5430 C   0  0
    6.3650   -3.5000   -0.5920 N   0  0
    7.3750   -3.8870    0.2420 C   0  0
    8.4450   -3.3300    0.2030 O   0  0
    7.1510   -4.9790    1.1820 C   0  0
    6.4400   -6.1150    0.9200 N   0  0
    7.6370   -5.0200    2.4920 C   0  0
    6.4710   -6.8730    2.0510 C   0  0
    5.7660   -6.4650   -0.3400 C   0  0
    7.2050   -6.2210    3.0430 C   0  0
    7.4710   -6.7090    4.4040 N   0  0
    6.7500   -7.7540    4.9080 C   0  0
    5.8910   -8.2810    4.2400 O   0  0
    7.0450   -8.2290    6.3050 C   0  0
    6.2400   -7.4730    7.3610 C   0  0
    6.6740   -6.0140    7.5020 C   0  0
    6.0200   -5.3770    8.6560 N   0  0
    4.7150   -4.9880    8.5570 C   0  0
    4.1020   -5.1660    7.5290 O   0  0
    4.0650   -4.3570    9.6970 C   0  0
    2.7420   -4.0250    9.7700 N   0  0
    4.7050   -4.0020   10.8890 C   0  0
    2.5370   -3.4610   10.9920 C   0  0
    1.7210   -4.2310    8.7310 C   0  0
    3.7360   -3.4340   11.7090 C   0  0
    3.9360   -2.9060   13.0670 N   0  0
    2.8830   -2.3730   13.7560 C   0  0
    1.7830   -2.3340   13.2540 O   0  0
    3.0900   -1.8540   15.1000 C   0  0
    2.1350   -1.2700   15.8810 N   0  0
    4.3090   -1.8770   15.7890 C   0  0
    2.7320   -0.9240   17.0550 C   0  0
    0.7230   -1.0490   15.5310 C   0  0
    4.0800   -1.2890   17.0280 C   0  0
    5.0660   -1.0880   18.1000 N   0  0
    4.6930   -0.4900   19.2700 C   0  0
    3.5530   -0.1230   19.4300 O   0  0
    5.6780   -0.2970   20.3240 C   0  0
    5.4450    0.3130   21.5260 N   0  0
    7.0140   -0.7110   20.2620 C   0  0
    6.6150    0.2890   22.2190 C   0  0
    4.1720    0.8890   21.9890 C   0  0
    7.6060   -0.3380   21.4630 C   0  0
    9.0040   -0.5620   21.8580 N   0  0
    9.4450   -0.1370   23.0780 C   0  0
    8.6920    0.4240   23.8380 O   0  0
   10.8340   -0.3630   23.4610 C   0  0
   11.7580   -0.9880   22.6780 N   0  0
   11.3970    0.0140   24.6470 N   0  0
   12.9120   -1.0040   23.3770 C   0  0
   12.6880   -0.3810   24.6000 C   0  0
   10.7370    0.7130   25.7600 C   0  0
  -11.1110    4.6450  -11.3520 H   0  0
  -11.9790    3.5040  -14.7740 H   0  0
  -14.4320    5.7030  -11.4220 H   0  0
  -15.0300    5.5590  -14.6140 H   0  0
  -13.5450    4.7950  -15.1740 H   0  0
  -13.4690    6.1250  -14.0220 H   0  0
  -11.9770    6.4020  -11.0590 H   0  0
  -10.8600    5.7930  -14.1190 H   0  0
   -9.7070    5.9200  -12.8320 H   0  0
  -10.4880    2.5490  -12.3640 H   0  0
  -12.8200    1.0550  -13.2110 H   0  0
  -12.2440    1.0640  -14.8640 H   0  0
  -16.6270    1.8590  -13.7440 H   0  0
  -14.7290    1.1350  -14.7640 H   0  0
  -14.0670    2.5200  -15.5960 H   0  0
  -16.6270    5.1640  -10.8930 H   0  0
   -9.8070    1.5020  -15.0780 H   0  0
   -9.8610    0.6470  -13.5630 H   0  0
  -10.5490    4.1410  -15.8360 H   0  0
   -9.0270    3.2560  -15.7520 H   0  0
   -9.0350    5.0120  -15.6120 H   0  0
   -7.6700    2.0630  -14.6640 H   0  0
   -7.4300    3.4160  -11.5530 H   0  0
   -7.2890    0.2030  -13.2250 H   0  0
   -6.5370    1.6060  -12.4360 H   0  0
   -8.0880    0.9920  -11.8670 H   0  0
   -5.8200    2.9200  -13.7310 H   0  0
   -4.7110    5.5680  -13.7500 H   0  0
   -5.1000    5.1370  -15.3910 H   0  0
   -2.7870    4.4470  -15.0650 H   0  0
   -3.7170    2.9770  -15.0610 H   0  0
   -3.4820    3.9470  -12.3560 H   0  0
    0.7700    2.5100  -12.0610 H   0  0
   -1.6620    1.7050   -8.5920 H   0  0
   -4.1500    1.7830  -11.4260 H   0  0
   -4.0140    3.2110  -10.4030 H   0  0
   -3.9730    1.6040   -9.6820 H   0  0
    2.1060    1.9240   -9.6700 H   0  0
    1.7440   -0.3910   -5.8300 H   0  0
    5.3500    1.9410   -6.2090 H   0  0
    2.8480    3.8220   -8.3130 H   0  0
    4.0080    2.7830   -9.1370 H   0  0
    4.5270    3.7810   -7.7830 H   0  0
    3.8830   -1.0590   -4.1510 H   0  0
    4.6370   -2.2340   -2.5960 H   0  0
    8.6800   -1.7750   -1.1700 H   0  0
    8.2720    1.2910   -3.0490 H   0  0
    8.8010    0.0660   -4.1990 H   0  0
    9.4980    0.1170   -2.5820 H   0  0
    5.4790   -3.9610   -0.5610 H   0  0
    8.2350   -4.2620    2.9820 H   0  0
    5.9840   -7.8360    2.1290 H   0  0
    6.3070   -6.1640   -1.2360 H   0  0
    4.7830   -5.9900   -0.3690 H   0  0
    5.6150   -7.5430   -0.3850 H   0  0
    8.1800   -6.2740    4.9590 H   0  0
    6.7660   -9.2770    6.4080 H   0  0
    8.1130   -8.1490    6.5060 H   0  0
    6.2910   -7.9830    8.3240 H   0  0
    5.1720   -7.5390    7.1520 H   0  0
    6.4340   -5.4510    6.6000 H   0  0
    7.7560   -5.9410    7.6190 H   0  0
    6.5260   -5.2310    9.5060 H   0  0
    5.7520   -4.1410   11.1250 H   0  0
    1.5720   -3.1020   11.3240 H   0  0
    1.5680   -5.2740    8.4510 H   0  0
    2.0020   -3.6820    7.8320 H   0  0
    0.7660   -3.8360    9.0760 H   0  0
    4.8440   -2.9380   13.4840 H   0  0
    5.2460   -2.2770   15.4260 H   0  0
    2.2050   -0.4390   17.8650 H   0  0
    0.1760   -1.9590   15.2830 H   0  0
    0.6620   -0.3810   14.6740 H   0  0
    0.2110   -0.5700   16.3650 H   0  0
    6.0100   -1.3930   17.9690 H   0  0
    7.4900   -1.2210   19.4340 H   0  0
    6.7210    0.7070   23.2130 H   0  0
    3.3440    0.1820   22.0200 H   0  0
    3.8850    1.7110   21.3320 H   0  0
    4.3030    1.2950   22.9920 H   0  0
    9.6290   -1.0270   21.2310 H   0  0
   13.8320   -1.4360   23.0120 H   0  0
   13.3990   -0.2210   25.4010 H   0  0
    9.8810    0.1820   26.1780 H   0  0
   10.3890    1.6890   25.4220 H   0  0
   11.4550    0.8750   26.5650 H   0  0
  2  1  1  0
  2  3  1  0
  2  4  1  0
  2  5  1  0
  3  6  1  0
  3  7  1  0
  3  8  1  0
  4  9  1  0
  4 10  1  0
  5 11  1  0
  5 12  1  0
  6 13  2  0
  6 14  1  0
  7 15  2  0
 10 16  1  0
 11 17  1  0
 13 18  1  0
 16 19  1  0
 16 20  1  0
 17 21  1  0
 18 22  2  0
 19 23  1  0
 19 24  1  0
 21 25  1  0
 24 26  2  0
 24 27  1  0
 27 28  1  0
 28 29  1  0
 29 30  1  0
 30 31  1  0
 31 32  2  0
 31 33  1  0
 33 34  1  0
 33 35  2  0
 34 36  1  0
 34 37  1  0
 35 38  1  0
 38 39  1  0
 39 40  1  0
 40 41  2  0
 40 42  1  0
 42 43  1  0
 42 44  2  0
 43 45  1  0
 43 46  1  0
 44 47  1  0
 47 48  1  0
 48 49  1  0
 49 50  2  0
 49 51  1  0
 51 52  1  0
 51 53  2  0
 52 54  1  0
 52 55  1  0
 53 56  1  0
 56 57  1  0
 57 58  1  0
 58 59  2  0
 58 60  1  0
 60 61  1  0
 60 62  2  0
 61 63  1  0
 61 64  1  0
 62 65  1  0
 65 66  1  0
 66 67  1  0
 67 68  2  0
 67 69  1  0
 69 70  1  0
 70 71  1  0
 71 72  1  0
 72 73  1  0
 73 74  2  0
 73 75  1  0
 75 76  1  0
 75 77  2  0
 76 78  1  0
 76 79  1  0
 77 80  1  0
 80 81  1  0
 81 82  1  0
 82 83  2  0
 82 84  1  0
 84 85  1  0
 84 86  2  0
 85 87  1  0
 85 88  1  0
 86 89  1  0
 89 90  1  0
 90 91  1  0
 91 92  2  0
 91 93  1  0
 93 94  1  0
 93 95  2  0
 94 96  1  0
 94 97  1  0
 95 98  1  0
 98 99  1  0
 99100  1  0
100101  2  0
100102  1  0
102103  2  0
102104  1  0
103105  1  0
104106  1  0
104107  1  0
 11 16  1  0
 12 14  1  0
 15 18  1  0
 19 21  1  0
 36 38  2  0
 45 47  2  0
 54 56  2  0
 63 65  2  0
 78 80  2  0
 87 89  2  0
 96 98  2  0
105106  2  0
  4108  1  0
  5109  1  0
  7110  1  0
  8111  1  0
  8112  1  0
  8113  1  0
  9114  1  0
 10115  1  0
 10116  1  0
 11117  1  0
 12118  1  0
 12119  1  0
 13120  1  0
 14121  1  0
 14122  1  0
 15123  1  0
 17124  1  0
 17125  1  0
 20126  1  0
 20127  1  0
 20128  1  0
 21129  1  0
 23130  1  0
 25131  1  0
 25132  1  0
 25133  1  0
 27134  1  0
 28135  1  0
 28136  1  0
 29137  1  0
 29138  1  0
 30139  1  0
 35140  1  0
 36141  1  0
 37142  1  0
 37143  1  0
 37144  1  0
 39145  1  0
 44146  1  0
 45147  1  0
 46148  1  0
 46149  1  0
 46150  1  0
 48151  1  0
 53152  1  0
 54153  1  0
 55154  1  0
 55155  1  0
 55156  1  0
 57157  1  0
 62158  1  0
 63159  1  0
 64160  1  0
 64161  1  0
 64162  1  0
 66163  1  0
 69164  1  0
 69165  1  0
 70166  1  0
 70167  1  0
 71168  1  0
 71169  1  0
 72170  1  0
 77171  1  0
 78172  1  0
 79173  1  0
 79174  1  0
 79175  1  0
 81176  1  0
 86177  1  0
 87178  1  0
 88179  1  0
 88180  1  0
 88181  1  0
 90182  1  0
 95183  1  0
 96184  1  0
 97185  1  0
 97186  1  0
 97187  1  0
 99188  1  0
105189  1  0
106190  1  0
107191  1  0
107192  1  0
107193  1  0
M  END
> <Name>
CHEMBL556536

> <IC50 nM>
840

> <Molecule_ChEMBL_ID>
CHEMBL556536

> <Smiles>
C[C@H]1C[C@@H]2[C@H]3CCC4=CC(=O)C=C[C@@]4(C)[C@]3(F)[C@H](O)C[C@@]2(C)[C@]1(O)C(=O)NCCNC(=O)c1cc(NC(=O)c2cc(NC(=O)c3cc(NC(=O)c4cc(NC(=O)CCCNC(=O)c5cc(NC(=O)c6cc(NC(=O)c7cc(NC(=O)c8nccn8C)cn7C)cn6C)cn5
C)cn4C)cn3C)cn2C)cn1C

$$$$
CHEMBL391076
  SciTegic08162514323D

 48 49  0  0  1  0            999 V2000
    2.5610    2.9830   -1.9370 Cl  0  0
    0.8670    2.7480   -2.0430 C   0  0
    0.3280    1.4510   -1.9550 C   0  0
    0.0120    3.8520   -2.2210 C   0  0
   -1.0620    1.2600   -2.0450 C   0  0
   -1.3770    3.6580   -2.3110 C   0  0
   -1.9140    2.3630   -2.2230 C   0  0
   -1.6310   -0.1110   -1.9490 C   0  0
   -2.0680   -0.4410   -0.5210 C   0  0  2  0  0  0
   -2.5000   -1.7830   -0.4920 O   0  0
   -3.2210    0.4410   -0.0390 C   0  0
   -0.9370   -0.2790    0.4940 C   0  0
   -3.7520   -0.0880    1.1090 F   0  0
   -4.1890    0.5000   -1.0060 F   0  0
   -2.7520    1.7050    0.2150 F   0  0
   -0.2540   -1.6030    0.8320 C   0  0
    0.8220   -0.9670    1.6410 C   0  0
   -1.1310   -2.5210    1.6840 C   0  0
    0.3130   -2.3070   -0.4020 C   0  0
    2.0250   -0.5600    1.0290 C   0  0
    0.6310   -0.7730    3.0200 C   0  0
    2.2150   -0.7360   -0.2640 O   0  0
    3.0310    0.0390    1.8070 C   0  0
    1.6410   -0.1740    3.7930 C   0  0
    3.5490   -0.7500   -0.7460 C   0  0
    2.8420    0.2330    3.1860 C   0  0
    1.4610    0.0080    5.1000 F   0  0
    0.9770    0.5980   -1.8180 H   0  0
    0.4100    4.8540   -2.2890 H   0  0
   -2.0330    4.5060   -2.4490 H   0  0
   -2.9840    2.2210   -2.2930 H   0  0
   -2.4690   -0.2050   -2.6410 H   0  0
   -0.8960   -0.8340   -2.3050 H   0  0
   -3.2050   -1.8730   -1.1520 H   0  0
   -0.2110    0.4550    0.1470 H   0  0
   -1.3010    0.2090    1.4000 H   0  0
   -0.5570   -3.0230    2.4630 H   0  0
   -1.5980   -3.2890    1.0680 H   0  0
   -1.9240   -1.9530    2.1700 H   0  0
    1.2480   -2.8200   -0.1840 H   0  0
    0.5040   -1.5880   -1.2010 H   0  0
   -0.3940   -3.0450   -0.7810 H   0  0
   -0.2910   -1.0860    3.4880 H   0  0
    3.9550    0.3540    1.3440 H   0  0
    3.5590   -1.2600   -1.7090 H   0  0
    3.9260    0.2740   -0.7380 H   0  0
    4.1560   -1.3340   -0.0530 H   0  0
    3.6190    0.6930    3.7760 H   0  0
  1  2  1  0
  2  3  2  0
  2  4  1  0
  3  5  1  0
  4  6  2  0
  5  7  2  0
  5  8  1  0
  8  9  1  0
  9 10  1  0
  9 11  1  0
  9 12  1  0
 11 13  1  0
 11 14  1  0
 11 15  1  0
 12 16  1  0
 16 17  1  0
 16 18  1  0
 16 19  1  0
 17 20  2  0
 17 21  1  0
 20 22  1  0
 20 23  1  0
 21 24  2  0
 22 25  1  0
 23 26  2  0
 24 27  1  0
  6  7  1  0
 24 26  1  0
  3 28  1  0
  4 29  1  0
  6 30  1  0
  7 31  1  0
  8 32  1  0
  8 33  1  0
 10 34  1  0
 12 35  1  0
 12 36  1  0
 18 37  1  0
 18 38  1  0
 18 39  1  0
 19 40  1  0
 19 41  1  0
 19 42  1  0
 21 43  1  0
 23 44  1  0
 25 45  1  0
 25 46  1  0
 25 47  1  0
 26 48  1  0
M  END
> <Name>
CHEMBL391076

> <IC50 nM>
550

> <Molecule_ChEMBL_ID>
CHEMBL391076

> <Smiles>
COc1ccc(F)cc1C(C)(C)CC(O)(Cc1cccc(Cl)c1)C(F)(F)F

$$$$
CHEMBL244714
  SciTegic08162514323D

 66 70  0  0  0  0            999 V2000
    2.7910   -2.0000   -2.5840 S   0  0
    1.6390   -0.7520   -2.4980 C   0  0
    3.3560   -1.5060   -4.1060 C   0  0
    1.6780    0.0620   -3.6470 C   0  0
    0.7400   -0.5700   -1.3670 C   0  0
    2.6600   -0.3750   -4.5630 C   0  0
    0.8150    1.2150   -3.8710 C   0  0
    1.0080   -1.0760   -0.1410 C   0  0
    0.4020    1.9550   -2.9120 N   0  0
    0.3870    1.5510   -5.2750 C   0  0
    2.2130   -1.6410   -0.0060 O   0  0
    0.0550   -0.9410    1.0080 C   0  0
   -0.4470    3.0780   -3.1860 O   0  0
    2.7420   -1.8750    1.2150 C   0  0
   -1.3590   -0.7250    0.8750 C   0  0
    0.6430   -1.0250    2.3090 C   0  0
   -0.6070    3.7320   -1.9340 C   0  0
    2.0330   -1.5700    2.4280 C   0  0
    4.0430   -2.4280    1.2620 C   0  0
   -2.0760   -0.1860    1.9820 C   0  0
   -2.1390   -1.0760   -0.3630 C   0  0
   -0.1270   -0.5760    3.4200 C   0  0
   -1.5060    4.9570   -2.1090 C   0  0
    2.6950   -1.8200    3.6760 C   0  0
    4.6740   -2.6680    2.4980 C   0  0
   -3.3540    0.2520    1.8400 N   0  0
   -1.4490   -0.1230    3.2500 C   0  0
   -3.3790   -0.5720   -0.5270 C   0  0
   -1.6270   -2.0220   -1.4220 C   0  0
    2.1270   -1.5800    4.8630 O   0  0
    4.0060   -2.3560    3.6990 C   0  0
   -4.0200    0.3360    0.5100 C   0  0
    2.8420   -0.7850    5.7970 C   0  0
    4.6210   -2.5780    4.8710 O   0  0
   -3.9410    1.7790    0.0080 C   0  0
   -5.4880   -0.0720    0.6660 C   0  0
    4.1490   -2.0060   -4.6450 H   0  0
   -0.1560    0.0040   -1.5490 H   0  0
    2.8610    0.1050   -5.5100 H   0  0
   -0.5180    2.1560   -5.3220 H   0  0
    0.2030    0.6350   -5.8380 H   0  0
    1.1820    2.1000   -5.7830 H   0  0
   -1.0510    3.0250   -1.2340 H   0  0
    0.3790    4.0270   -1.5760 H   0  0
    4.5610   -2.6700    0.3460 H   0  0
    0.2420   -0.5470    4.4300 H   0  0
   -1.6460    5.4710   -1.1600 H   0  0
   -1.0740    5.6500   -2.8300 H   0  0
   -2.4880    4.6620   -2.4790 H   0  0
    5.6680   -3.0880    2.5230 H   0  0
   -3.8750    0.5490    2.6430 H   0  0
   -1.9800    0.2680    4.1090 H   0  0
   -3.9410   -0.8200   -1.4160 H   0  0
   -0.7250   -2.5570   -1.1250 H   0  0
   -1.4020   -1.4710   -2.3340 H   0  0
   -2.3910   -2.7620   -1.6580 H   0  0
    2.2460   -0.1780    6.4790 H   0  0
    3.4980   -0.1150    5.2420 H   0  0
    3.4690   -1.4430    6.3990 H   0  0
    5.5140   -2.9450    4.8730 H   0  0
   -2.9100    2.1190   -0.0920 H   0  0
   -4.4470    2.4550    0.6970 H   0  0
   -4.4200    1.8770   -0.9670 H   0  0
   -5.5900   -1.0980    1.0230 H   0  0
   -6.0120    0.0000   -0.2870 H   0  0
   -5.9960    0.5800    1.3750 H   0  0
  1  2  1  0
  1  3  1  0
  2  4  2  0
  2  5  1  0
  3  6  2  0
  4  7  1  0
  5  8  2  0
  7  9  2  0
  7 10  1  0
  8 11  1  0
  8 12  1  0
  9 13  1  0
 11 14  1  0
 12 15  2  0
 12 16  1  0
 13 17  1  0
 14 18  2  0
 14 19  1  0
 15 20  1  0
 15 21  1  0
 16 22  2  0
 17 23  1  0
 18 24  1  0
 19 25  2  0
 20 26  1  0
 20 27  2  0
 21 28  2  0
 21 29  1  0
 24 30  1  0
 24 31  2  0
 26 32  1  0
 30 33  1  0
 31 34  1  0
 32 35  1  0
 32 36  1  0
  4  6  1  0
 16 18  1  0
 22 27  1  0
 25 31  1  0
 28 32  1  0
  3 37  1  0
  5 38  1  0
  6 39  1  0
 10 40  1  0
 10 41  1  0
 10 42  1  0
 17 43  1  0
 17 44  1  0
 19 45  1  0
 22 46  1  0
 23 47  1  0
 23 48  1  0
 23 49  1  0
 25 50  1  0
 26 51  1  0
 27 52  1  0
 28 53  1  0
 29 54  1  0
 29 55  1  0
 29 56  1  0
 33 57  1  0
 33 58  1  0
 33 59  1  0
 34 60  1  0
 35 61  1  0
 35 62  1  0
 35 63  1  0
 36 64  1  0
 36 65  1  0
 36 66  1  0
M  END
> <Name>
CHEMBL244714

> <IC50 nM>
0.5

> <Molecule_ChEMBL_ID>
CHEMBL244714

> <Smiles>
CCO/N=C(\C)c1ccsc1/C=C1\Oc2ccc(O)c(OC)c2-c2ccc3c(c21)C(C)=CC(C)(C)N3

$$$$
CHEMBL3937005
  SciTegic08162514323D

 74 78  0  0  1  0            999 V2000
    5.8300    2.2400    1.1410 O   0  0
    5.0350    2.1330    0.2360 C   0  0
    5.2930    2.6950   -0.9800 N   0  0
    3.7310    1.4370    0.2300 C   0  0
    6.4590    3.3910   -1.1820 C   0  0
    3.6070    0.1680    0.8400 C   0  0
    2.6150    2.0450   -0.3850 C   0  0
    6.4810    4.6040   -1.9140 C   0  0
    7.6620    2.8890   -0.6500 C   0  0
    2.3630   -0.5080    0.8360 C   0  0
    1.3730    1.3790   -0.3890 C   0  0
    7.6470    5.2870   -2.1090 N   0  0
    5.2360    5.1780   -2.4960 C   0  0
    8.8520    3.6050   -0.8610 C   0  0
    1.2250    0.0940    0.2090 C   0  0
    2.2870   -1.8420    1.4900 C   0  0
    8.8150    4.8050   -1.5960 C   0  0
   -0.1090   -0.6020    0.1890 C   0  0  1  0  0  0
    0.8550   -2.3340    1.7520 C   0  0
   -0.9800   -0.3570   -1.0820 C   0  0  1  0  0  0
   -0.0020   -2.1170    0.5020 C   0  0  1  0  0  0
   -0.2930   -0.7680   -2.2500 O   0  0
   -2.3500   -1.0740   -0.9960 C   0  0
   -1.4200   -2.6840    0.6640 C   0  0  1  0  0  0
   -2.2290   -2.5700   -0.6410 C   0  0  1  0  0  0
   -1.5250   -4.1760    0.9670 C   0  0
   -3.5120   -3.3590   -0.2580 C   0  0  2  0  0  0
   -1.5000   -3.3320   -1.7700 C   0  0
   -2.9710   -4.5290    0.6040 C   0  0
   -4.1820   -3.8580   -1.4040 O   0  0
   -4.4820   -2.5510    0.4960 C   0  0
   -5.2790   -1.8970    1.0900 C   0  0
   -6.2660   -1.0920    1.8030 C   0  0
   -6.2990    0.3320    1.2340 C   0  0
   -7.2770    1.2420    1.9750 C   0  0
   -7.3180    2.6580    1.3980 C   0  0
    4.6310    2.6040   -1.7250 H   0  0
    4.4650   -0.2890    1.3110 H   0  0
    2.7030    3.0140   -0.8520 H   0  0
    7.6900    1.9670   -0.0860 H   0  0
    0.5390    1.8730   -0.8570 H   0  0
    5.3630    6.1640   -2.9410 H   0  0
    4.4750    5.2580   -1.7210 H   0  0
    4.8560    4.5100   -3.2700 H   0  0
    9.7870    3.2400   -0.4630 H   0  0
    2.8400   -1.8340    2.4300 H   0  0
    2.7930   -2.5610    0.8420 H   0  0
    9.7290    5.3570   -1.7580 H   0  0
   -0.6600   -0.1520    1.0160 H   0  0
    0.8830   -3.3890    2.0270 H   0  0
    0.4260   -1.8030    2.6020 H   0  0
   -1.1880    0.7030   -1.2110 H   0  0
    0.4940   -2.6270   -0.3240 H   0  0
    0.4000   -0.1110   -2.4200 H   0  0
   -2.9280   -0.5550   -0.2300 H   0  0
   -2.9120   -0.9450   -1.9240 H   0  0
   -1.9160   -2.1410    1.4590 H   0  0
   -0.8380   -4.7360    0.3520 H   0  0
   -1.2970   -4.4060    1.9960 H   0  0
   -1.5000   -4.4080   -1.5980 H   0  0
   -0.4630   -3.0060   -1.8460 H   0  0
   -1.9800   -3.1470   -2.7300 H   0  0
   -3.5550   -4.6880    1.5020 H   0  0
   -2.9840   -5.4730    0.0740 H   0  0
   -4.8280   -4.5120   -1.0960 H   0  0
   -6.0100   -1.0680    2.8610 H   0  0
   -7.2460   -1.5550    1.7130 H   0  0
   -5.2990    0.7660    1.2270 H   0  0
   -6.5200    0.3140    0.1660 H   0  0
   -8.2760    0.8030    1.9880 H   0  0
   -7.0530    1.2660    3.0410 H   0  0
   -8.0510    3.2680    1.9300 H   0  0
   -6.3400    3.1310    1.4730 H   0  0
   -7.6020    2.6370    0.3480 H   0  0
  1  2  2  0
  2  3  1  0
  2  4  1  0
  3  5  1  0
  4  6  2  0
  4  7  1  0
  5  8  2  0
  5  9  1  0
  6 10  1  0
  7 11  2  0
  8 12  1  0
  8 13  1  0
  9 14  2  0
 10 15  2  0
 10 16  1  0
 12 17  2  0
 18 15  1  0
 16 19  1  0
 18 20  1  0
 18 21  1  0
 20 22  1  0
 20 23  1  0
 21 24  1  0
 23 25  1  0
 24 26  1  0
 25 27  1  0
 25 28  1  0
 26 29  1  0
 27 30  1  0
 27 31  1  0
 31 32  3  0
 32 33  1  0
 33 34  1  0
 34 35  1  0
 35 36  1  0
 11 15  1  0
 14 17  1  0
 21 19  1  0
 24 25  1  0
 27 29  1  0
  3 37  1  0
  6 38  1  0
  7 39  1  0
  9 40  1  0
 11 41  1  0
 13 42  1  0
 13 43  1  0
 13 44  1  0
 14 45  1  0
 16 46  1  0
 16 47  1  0
 17 48  1  0
 18 49  1  0
 19 50  1  0
 19 51  1  0
 20 52  1  0
 21 53  1  0
 22 54  1  0
 23 55  1  0
 23 56  1  0
 24 57  1  0
 26 58  1  0
 26 59  1  0
 28 60  1  0
 28 61  1  0
 28 62  1  0
 29 63  1  0
 29 64  1  0
 30 65  1  0
 33 66  1  0
 33 67  1  0
 34 68  1  0
 34 69  1  0
 35 70  1  0
 35 71  1  0
 36 72  1  0
 36 73  1  0
 36 74  1  0
M  END
> <Name>
CHEMBL3937005

> <IC50 nM>
2349

> <Molecule_ChEMBL_ID>
CHEMBL3937005

> <Smiles>
CCCCC#C[C@]1(O)CC[C@H]2[C@@H]3CCc4cc(C(=O)Nc5cccnc5C)ccc4[C@H]3[C@@H](O)C[C@@]21C

$$$$
CHEMBL65469
  SciTegic08162514323D

 53 57  0  0  1  0            999 V2000
   -1.9100    3.4020   -0.5640 S   0  0
   -1.5800    3.5720    0.8400 O   0  0
   -0.9530    4.0290   -1.4570 O   0  0
   -1.9000    1.8120   -0.8770 N   0  0
   -3.4610    4.1070   -0.8460 C   0  0
   -0.7730    1.1030   -0.7150 C   0  0
   -4.0510    4.9200    0.1370 C   0  0
   -4.1290    3.8690   -2.0610 C   0  0
   -0.7540   -0.2830   -0.9880 C   0  0
    0.4100    1.7340   -0.2680 C   0  0
   -5.3130    5.4940   -0.0940 C   0  0
   -5.3910    4.4430   -2.2890 C   0  0
    0.4340   -1.0410   -0.8120 C   0  0
    1.6020    0.9920   -0.0980 C   0  0
   -5.9820    5.2560   -1.3070 C   0  0
    1.6310   -0.4080   -0.3610 C   0  0
    0.4280   -2.5020   -1.0960 C   0  0  1  0  0  0
    2.8520   -1.2420   -0.2010 C   0  0
    1.7330   -3.0080   -1.4200 O   0  0
   -0.1130   -3.2420    0.0740 C   0  0
    2.8380   -2.5370   -0.8050 C   0  0
    4.0270   -0.8300    0.5020 C   0  0
   -1.2130   -4.1060   -0.0860 C   0  0
    0.4710   -3.0780    1.3440 C   0  0
    3.9880   -3.3580   -0.7750 C   0  0
    4.1060    0.3340    1.1600 O   0  0
    5.1680   -1.6660    0.5330 C   0  0
   -1.7250   -4.8050    1.0200 C   0  0
   -0.0430   -3.7790    2.4490 C   0  0
    5.1540   -2.9220   -0.1110 C   0  0
    5.0840    0.4570    2.1840 C   0  0
   -1.1410   -4.6430    2.2870 C   0  0
   -2.7340    1.3590   -1.1910 H   0  0
   -3.5370    5.1040    1.0700 H   0  0
   -3.6760    3.2460   -2.8160 H   0  0
   -1.6480   -0.7830   -1.3360 H   0  0
    0.4220    2.7930   -0.0490 H   0  0
   -5.7680    6.1190    0.6620 H   0  0
   -5.9060    4.2620   -3.2210 H   0  0
    2.4670    1.5450    0.2270 H   0  0
   -6.9530    5.6990   -1.4820 H   0  0
   -0.2170   -2.7150   -1.9490 H   0  0
   -1.6660   -4.2360   -1.0590 H   0  0
    1.3150   -2.4160    1.4750 H   0  0
    3.9770   -4.3220   -1.2640 H   0  0
    6.0590   -1.3460    1.0530 H   0  0
   -2.5680   -5.4690    0.8970 H   0  0
    0.4060   -3.6520    3.4240 H   0  0
    6.0310   -3.5510   -0.0900 H   0  0
    4.8950    1.3810    2.7290 H   0  0
    5.0780   -0.4590    2.7720 H   0  0
    6.0630    0.5450    1.7110 H   0  0
   -1.5330   -5.1800    3.1390 H   0  0
  1  2  2  0
  1  3  2  0
  1  4  1  0
  1  5  1  0
  4  6  1  0
  5  7  2  0
  5  8  1  0
  6  9  2  0
  6 10  1  0
  7 11  1  0
  8 12  2  0
  9 13  1  0
 10 14  2  0
 11 15  2  0
 13 16  2  0
 13 17  1  0
 16 18  1  0
 17 19  1  0
 17 20  1  0
 18 21  2  0
 18 22  1  0
 20 23  2  0
 20 24  1  0
 21 25  1  0
 22 26  1  0
 22 27  2  0
 23 28  1  0
 24 29  2  0
 25 30  2  0
 26 31  1  0
 28 32  2  0
 12 15  1  0
 14 16  1  0
 19 21  1  0
 27 30  1  0
 29 32  1  0
  4 33  1  0
  7 34  1  0
  8 35  1  0
  9 36  1  0
 10 37  1  0
 11 38  1  0
 12 39  1  0
 14 40  1  0
 15 41  1  0
 17 42  1  0
 23 43  1  0
 24 44  1  0
 25 45  1  0
 27 46  1  0
 28 47  1  0
 29 48  1  0
 30 49  1  0
 31 50  1  0
 31 51  1  0
 31 52  1  0
 32 53  1  0
M  END
> <Name>
CHEMBL65469

> <IC50 nM>
146

> <Molecule_ChEMBL_ID>
CHEMBL65469

> <Smiles>
COc1cccc2c1-c1ccc(NS(=O)(=O)c3ccccc3)cc1C(c1ccccc1)O2

$$$$
CHEMBL310365
  SciTegic08162514323D

 54 58  0  0  1  0            999 V2000
    0.3670   -3.7910    1.8910 F   0  0
    1.6930   -3.8790    1.7950 C   0  0
    2.3770   -3.2710    0.7250 C   0  0
    2.4140   -4.5840    2.7750 C   0  0
    3.7770   -3.3730    0.6390 C   0  0
    1.6290   -2.5190   -0.3200 C   0  0  2  0  0  0
    3.8130   -4.6860    2.6870 C   0  0
    4.4940   -4.0800    1.6190 C   0  0
    2.2850   -2.6580   -1.5590 O   0  0
    1.5410   -1.0250    0.0120 C   0  0  2  0  0  0
    0.3030   -0.3510   -0.6450 C   0  0  2  0  0  0
    2.8610   -0.3200   -0.3280 C   0  0
    0.3400    1.1800   -0.4750 C   0  0
   -0.9860   -1.0410   -0.0740 C   0  0
    0.3440   -0.5780   -2.1620 C   0  0
    2.8220    1.1410    0.1210 C   0  0
   -0.7890    1.9010   -0.2930 C   0  0
    1.6740    1.8970   -0.5530 C   0  0
   -2.2340   -0.1740   -0.1370 C   0  0
   -2.0800    1.1970   -0.2130 C   0  0
   -3.5510   -0.6330   -0.0980 C   0  0
   -3.3710    1.6270   -0.1910 N   0  0
   -4.2070    0.5570   -0.1330 N   0  0
   -3.7750    2.9240   -0.2290 C   0  0
   -3.1930    3.8200   -1.1470 C   0  0
   -4.7770    3.3770    0.6520 C   0  0
   -3.6130    5.1600   -1.1840 C   0  0
   -5.1950    4.7170    0.6130 C   0  0
   -4.6150    5.6100   -0.3050 C   0  0
   -5.0120    6.8810   -0.3400 F   0  0
    1.8930   -5.0530    3.6000 H   0  0
    4.3090   -2.9100   -0.1820 H   0  0
    0.6270   -2.9370   -0.4180 H   0  0
    4.3630   -5.2280    3.4410 H   0  0
    5.5680   -4.1560    1.5510 H   0  0
    2.2250   -3.5920   -1.8150 H   0  0
    1.4220   -0.9510    1.0960 H   0  0
    3.0530   -0.3750   -1.4000 H   0  0
    3.6910   -0.8280    0.1640 H   0  0
   -1.1720   -1.9900   -0.5780 H   0  0
   -0.8440   -1.2850    0.9800 H   0  0
   -0.4510   -0.0190   -2.6580 H   0  0
    1.3050   -0.2690   -2.5720 H   0  0
    0.2050   -1.6330   -2.4000 H   0  0
    2.7050    1.1840    1.2050 H   0  0
    3.7700    1.6270   -0.1070 H   0  0
   -0.7520    2.9770   -0.2170 H   0  0
    1.9160    2.0490   -1.6040 H   0  0
    1.6000    2.8930   -0.1110 H   0  0
   -3.9750   -1.6270   -0.0490 H   0  0
   -2.4240    3.4920   -1.8320 H   0  0
   -5.2360    2.7050    1.3630 H   0  0
   -3.1660    5.8440   -1.8910 H   0  0
   -5.9650    5.0590    1.2910 H   0  0
  1  2  1  0
  2  3  2  0
  2  4  1  0
  3  5  1  0
  3  6  1  0
  4  7  2  0
  5  8  2  0
  6  9  1  0
  6 10  1  0
 10 11  1  0
 10 12  1  0
 11 13  1  0
 11 14  1  0
 11 15  1  0
 12 16  1  0
 13 17  2  0
 13 18  1  0
 14 19  1  0
 17 20  1  0
 19 21  1  0
 20 22  1  0
 21 23  2  0
 22 24  1  0
 24 25  2  0
 24 26  1  0
 25 27  1  0
 26 28  2  0
 27 29  2  0
 29 30  1  0
  7  8  1  0
 16 18  1  0
 19 20  2  0
 22 23  1  0
 28 29  1  0
  4 31  1  0
  5 32  1  0
  6 33  1  0
  7 34  1  0
  8 35  1  0
  9 36  1  0
 10 37  1  0
 12 38  1  0
 12 39  1  0
 14 40  1  0
 14 41  1  0
 15 42  1  0
 15 43  1  0
 15 44  1  0
 16 45  1  0
 16 46  1  0
 17 47  1  0
 18 48  1  0
 18 49  1  0
 21 50  1  0
 25 51  1  0
 26 52  1  0
 27 53  1  0
 28 54  1  0
M  END
> <Name>
CHEMBL310365

> <IC50 nM>
7.2

> <Molecule_ChEMBL_ID>
CHEMBL310365

> <Smiles>
C[C@]12Cc3cnn(-c4ccc(F)cc4)c3C=C1CCC[C@@H]2[C@@H](O)c1ccccc1F

$$$$
CHEMBL3093450
  SciTegic08162514323D

 50 52  0  0  1  0            999 V2000
   -0.6990   -0.2700   -0.2170 S   0  0
    0.6390    0.0880    0.2230 O   0  0
   -1.6640   -0.3180    0.8670 O   0  0
   -1.2190    1.0200   -1.2660 N   0  0
   -0.6310   -1.8300   -0.9550 C   0  0
   -1.4780    2.3180   -0.6700 C   0  0  2  0  0  0
   -1.7680   -2.6600   -0.9510 C   0  0
    0.5630   -2.2720   -1.5590 C   0  0
   -2.1930    3.2320   -1.6680 C   0  0
   -0.1840    2.9300   -0.1330 C   0  0
   -1.7110   -3.9320   -1.5510 C   0  0
   -3.0310   -2.2010   -0.3150 C   0  0
    0.6150   -3.5430   -2.1580 C   0  0
    1.7680   -1.4000   -1.5670 C   0  0
   -1.3960    3.4140   -2.7700 F   0  0
   -2.4430    4.4430   -1.0800 F   0  0
   -3.3770    2.6540   -2.0490 F   0  0
    0.0160    2.5940    1.3300 C   0  0
   -0.5200   -4.3730   -2.1540 C   0  0
    1.1840    2.4020    1.9840 C   0  0
   -0.9920    2.4160    2.2950 C   0  0
   -0.4610   -5.7150   -2.7890 C   0  0
    0.9960    2.1110    3.3120 C   0  0
    2.4820    2.4770    1.4240 C   0  0
   -0.3730    2.1150    3.5330 N   0  0
    2.0880    1.8730    4.1820 C   0  0
    3.5940    2.2420    2.2750 C   0  0
    3.4020    1.9390    3.6520 C   0  0
    4.9280    2.3110    1.7380 C   0  0
    6.0000    2.3610    1.3010 N   0  0
   -2.0620    0.7250   -1.7770 H   0  0
   -2.1450    2.0470    0.1480 H   0  0
   -0.1870    4.0140   -0.2600 H   0  0
    0.6740    2.5800   -0.7070 H   0  0
   -2.5820   -4.5680   -1.5490 H   0  0
   -3.3130   -1.1780   -0.5650 H   0  0
   -2.9360   -2.2660    0.7690 H   0  0
   -3.8500   -2.8560   -0.6170 H   0  0
    1.5310   -3.8810   -2.6230 H   0  0
    2.5490   -1.7230   -2.2540 H   0  0
    2.1950   -1.3650   -0.5660 H   0  0
    1.4810   -0.3850   -1.8440 H   0  0
   -2.0620    2.4900    2.1540 H   0  0
    0.5250   -5.8670   -3.2290 H   0  0
   -0.7170   -6.4770   -2.0530 H   0  0
   -1.1950   -5.7700   -3.5920 H   0  0
    2.6190    2.7070    0.3750 H   0  0
   -0.8360    1.9390    4.3950 H   0  0
    1.9280    1.6450    5.2270 H   0  0
    4.2480    1.7620    4.3030 H   0  0
  1  2  2  0
  1  3  2  0
  1  4  1  0
  1  5  1  0
  6  4  1  0
  5  7  2  0
  5  8  1  0
  6  9  1  0
  6 10  1  0
  7 11  1  0
  7 12  1  0
  8 13  2  0
  8 14  1  0
  9 15  1  0
  9 16  1  0
  9 17  1  0
 10 18  1  0
 11 19  2  0
 18 20  1  0
 18 21  2  0
 19 22  1  0
 20 23  1  0
 20 24  2  0
 21 25  1  0
 23 26  2  0
 24 27  1  0
 26 28  1  0
 27 29  1  0
 29 30  3  0
 13 19  1  0
 23 25  1  0
 27 28  2  0
  4 31  1  0
  6 32  1  0
 10 33  1  0
 10 34  1  0
 11 35  1  0
 12 36  1  0
 12 37  1  0
 12 38  1  0
 13 39  1  0
 14 40  1  0
 14 41  1  0
 14 42  1  0
 21 43  1  0
 22 44  1  0
 22 45  1  0
 22 46  1  0
 24 47  1  0
 25 48  1  0
 26 49  1  0
 28 50  1  0
M  END
> <Name>
CHEMBL3093450

> <IC50 nM>
10000

> <Molecule_ChEMBL_ID>
CHEMBL3093450

> <Smiles>
Cc1cc(C)c(S(=O)(=O)NC(Cc2c[nH]c3ccc(C#N)cc23)C(F)(F)F)c(C)c1

$$$$
CHEMBL65221
  SciTegic08162514323D

 46 49  0  0  1  0            999 V2000
   -2.7910    4.1190   -0.6390 S   0  0
   -2.4590    4.2870    0.7660 O   0  0
   -1.8340    4.7480   -1.5330 O   0  0
   -2.7790    2.5290   -0.9550 N   0  0
   -4.4080    4.8200   -0.9380 C   0  0
   -1.6540    1.8220   -0.7930 C   0  0
   -1.6330    0.4340   -1.0670 C   0  0
   -0.4690    2.4510   -0.3440 C   0  0
   -0.4450   -0.3220   -0.8910 C   0  0
    0.7230    1.7110   -0.1760 C   0  0
    0.7500    0.3100   -0.4380 C   0  0
   -0.4510   -1.7850   -1.1720 C   0  0  1  0  0  0
    1.9710   -0.5250   -0.2790 C   0  0
    0.8530   -2.2910   -1.4960 O   0  0
   -0.9940   -2.5240   -0.0040 C   0  0
    1.9590   -1.8200   -0.8830 C   0  0
    3.1480   -0.1110    0.4240 C   0  0
   -2.0920   -3.3870   -0.1640 C   0  0
   -0.4080   -2.3630    1.2660 C   0  0
    3.1090   -2.6410   -0.8540 C   0  0
    3.2260    1.0530    1.0840 O   0  0
    4.2870   -0.9490    0.4550 C   0  0
   -2.6060   -4.0860    0.9430 C   0  0
   -0.9220   -3.0630    2.3710 C   0  0
    4.2730   -2.2050   -0.1900 C   0  0
    4.4490    1.7710    1.0210 C   0  0
   -2.0200   -3.9240    2.2090 C   0  0
    5.2950    1.3200    2.0040 F   0  0
    5.0310    1.5820   -0.2050 F   0  0
   -3.6130    2.0780   -1.2720 H   0  0
   -4.3990    5.8790   -0.6820 H   0  0
   -4.6970    4.6390   -1.9730 H   0  0
   -5.1410    4.3300   -0.2970 H   0  0
   -2.5280   -0.0660   -1.4140 H   0  0
   -0.4570    3.5120   -0.1270 H   0  0
    1.5880    2.2640    0.1480 H   0  0
   -1.0960   -1.9980   -2.0280 H   0  0
   -2.5470   -3.5160   -1.1350 H   0  0
    0.4350   -1.7010    1.3960 H   0  0
    3.0980   -3.6040   -1.3420 H   0  0
    5.1780   -0.6270    0.9740 H   0  0
   -3.4490   -4.7500    0.8180 H   0  0
   -0.4710   -2.9380    3.3460 H   0  0
    5.1520   -2.8320   -0.1680 H   0  0
    4.2540    2.8340    1.1720 H   0  0
   -2.4140   -4.4630    3.0600 H   0  0
  1  2  2  0
  1  3  2  0
  1  4  1  0
  1  5  1  0
  4  6  1  0
  6  7  2  0
  6  8  1  0
  7  9  1  0
  8 10  2  0
  9 11  2  0
  9 12  1  0
 11 13  1  0
 12 14  1  0
 12 15  1  0
 13 16  2  0
 13 17  1  0
 15 18  2  0
 15 19  1  0
 16 20  1  0
 17 21  1  0
 17 22  2  0
 18 23  1  0
 19 24  2  0
 20 25  2  0
 21 26  1  0
 23 27  2  0
 26 28  1  0
 26 29  1  0
 10 11  1  0
 14 16  1  0
 22 25  1  0
 24 27  1  0
  4 30  1  0
  5 31  1  0
  5 32  1  0
  5 33  1  0
  7 34  1  0
  8 35  1  0
 10 36  1  0
 12 37  1  0
 18 38  1  0
 19 39  1  0
 20 40  1  0
 22 41  1  0
 23 42  1  0
 24 43  1  0
 25 44  1  0
 26 45  1  0
 27 46  1  0
M  END
> <Name>
CHEMBL65221

> <IC50 nM>
2

> <Molecule_ChEMBL_ID>
CHEMBL65221

> <Smiles>
CS(=O)(=O)Nc1ccc2c(c1)C(c1ccccc1)Oc1cccc(OC(F)F)c1-2

$$$$
CHEMBL219973
  SciTegic08162514323D

 51 53  0  0  1  0            999 V2000
    1.9690   -6.1410   -0.3590 F   0  0
    0.9590   -5.3690   -0.7580 C   0  0
    0.9160   -4.0160   -0.3830 C   0  0
   -0.0660   -5.9100   -1.5530 C   0  0
   -0.1500   -3.2010   -0.8030 C   0  0
   -1.1330   -5.0960   -1.9730 C   0  0
   -1.1800   -3.7420   -1.6020 C   0  0
   -0.1860   -1.7700   -0.4020 C   0  0
   -2.1840   -2.9880   -2.0000 O   0  0
    0.9980   -1.4080    0.4960 C   0  0
   -1.5310   -1.3910    0.2170 C   0  0
   -0.0240   -1.2480   -1.8300 C   0  0
    0.9840    0.0590    0.9300 C   0  0  1  0  0  0
   -0.0740    0.2380    1.8420 O   0  0
    2.3010    0.3070    1.6680 C   0  0
    0.7750    1.0180   -0.2420 C   0  0
    2.5470   -0.7340    2.5270 F   0  0
    2.2110    1.4750    2.3790 F   0  0
    3.3240    0.4000    0.7600 F   0  0
    0.8360    2.4240    0.2090 N   0  0
   -0.3050    3.1450    0.4550 C   0  0
    2.0920    2.9780    0.3690 C   0  0
   -0.2150    4.5060    0.8890 C   0  0
   -1.6000    2.5700    0.2910 C   0  0
    2.2750    4.2540    0.7730 C   0  0
    1.1270    5.1350    1.0680 C   0  0
   -1.3850    5.2600    1.1480 C   0  0
   -2.7640    3.3280    0.5530 C   0  0
    1.3670    6.2660    1.4200 O   0  0
   -2.6580    4.6700    0.9810 C   0  0
    1.7050   -3.6020    0.2290 H   0  0
   -0.0390   -6.9490   -1.8440 H   0  0
   -1.9180   -5.5160   -2.5840 H   0  0
   -2.8790   -3.3770   -2.5470 H   0  0
    1.9410   -1.6580    0.0100 H   0  0
    1.0390   -2.0670    1.3650 H   0  0
   -2.3380   -2.0270   -0.1440 H   0  0
   -1.7890   -0.3590   -0.0230 H   0  0
   -1.4960   -1.4810    1.3030 H   0  0
   -0.8160   -0.5410   -2.0740 H   0  0
    0.9410   -0.7560   -1.9530 H   0  0
   -0.0740   -2.0670   -2.5470 H   0  0
   -0.7810    0.7050    1.3710 H   0  0
   -0.1860    0.8360   -0.7230 H   0  0
    1.5290    0.8550   -1.0120 H   0  0
    2.9820    2.3960    0.1720 H   0  0
   -1.7230    1.5470   -0.0330 H   0  0
    3.2790    4.6350    0.8830 H   0  0
   -1.3170    6.2870    1.4750 H   0  0
   -3.7380    2.8790    0.4260 H   0  0
   -3.5490    5.2440    1.1800 H   0  0
  1  2  1  0
  2  3  2  0
  2  4  1  0
  3  5  1  0
  4  6  2  0
  5  7  2  0
  5  8  1  0
  7  9  1  0
  8 10  1  0
  8 11  1  0
  8 12  1  0
 10 13  1  0
 13 14  1  0
 13 15  1  0
 13 16  1  0
 15 17  1  0
 15 18  1  0
 15 19  1  0
 16 20  1  0
 20 21  1  0
 20 22  1  0
 21 23  2  0
 21 24  1  0
 22 25  2  0
 23 26  1  0
 23 27  1  0
 24 28  2  0
 26 29  2  0
 27 30  2  0
  6  7  1  0
 25 26  1  0
 28 30  1  0
  3 31  1  0
  4 32  1  0
  6 33  1  0
  9 34  1  0
 10 35  1  0
 10 36  1  0
 11 37  1  0
 11 38  1  0
 11 39  1  0
 12 40  1  0
 12 41  1  0
 12 42  1  0
 14 43  1  0
 16 44  1  0
 16 45  1  0
 22 46  1  0
 24 47  1  0
 25 48  1  0
 27 49  1  0
 28 50  1  0
 30 51  1  0
M  END
> <Name>
CHEMBL219973

> <IC50 nM>
5

> <Molecule_ChEMBL_ID>
CHEMBL219973

> <Smiles>
CC(C)(CC(O)(Cn1ccc(=O)c2ccccc21)C(F)(F)F)c1cc(F)ccc1O

$$$$
CHEMBL3261411
  SciTegic08162514323D

 58 61  0  0  1  0            999 V2000
   -0.8650   -0.9020    1.8930 S   0  0
    0.4000   -1.4200    2.3790 O   0  0
   -1.2130    0.3870    2.4610 O   0  0
   -0.6520   -0.6350    0.1880 N   0  0
   -2.1090   -2.0310    2.3070 C   0  0
   -0.1780   -1.7440   -0.6250 C   0  0  2  0  0  0
   -1.7830   -3.3810    2.5450 C   0  0
   -3.4450   -1.6000    2.4040 C   0  0
    0.3610   -1.2360   -1.9610 C   0  0
   -1.2770   -2.7930   -0.7910 C   0  0
   -2.7950   -4.2970    2.8810 C   0  0
   -0.3730   -3.8420    2.4410 C   0  0
   -4.4550   -2.5190    2.7420 C   0  0
   -3.7970   -0.1780    2.1540 C   0  0
    1.5470   -0.3890   -1.7640 N   0  0
   -4.1310   -3.8670    2.9790 C   0  0
    1.4360    0.9530   -1.8340 C   0  0
   -5.1990   -4.8380    3.3360 C   0  0
    2.6680    1.6800   -1.9410 C   0  0
    0.1930    1.6370   -1.8050 C   0  0
    2.5940    3.0630   -2.0160 C   0  0
    3.9450    1.1150   -1.9800 C   0  0
    0.1660    3.0530   -1.8850 C   0  0
    3.8970    3.4300   -2.1070 N   0  0
    1.3750    3.7830   -1.9900 C   0  0
    4.6600    2.2870   -2.0840 N   0  0
    4.3830    4.6950   -2.2050 C   0  0
    5.4380    4.9980   -3.0940 C   0  0
    3.8420    5.7380   -1.4180 C   0  0
    5.9220    6.2720   -3.1880 N   0  0
    4.3340    7.0080   -1.5200 N   0  0
    5.3540    7.2330   -2.3980 C   0  0
   -1.5330   -0.2910   -0.2210 H   0  0
    0.6310   -2.1290   -0.0040 H   0  0
   -0.4000   -0.6680   -2.4940 H   0  0
    0.6210   -2.0700   -2.6130 H   0  0
   -1.7380   -2.7150   -1.7750 H   0  0
   -0.8730   -3.7970   -0.6660 H   0  0
   -2.0610   -2.6520   -0.0450 H   0  0
   -2.5450   -5.3320    3.0630 H   0  0
    0.1430   -3.5100    1.5410 H   0  0
   -0.3460   -4.9320    2.4590 H   0  0
    0.1910   -3.4800    3.3010 H   0  0
   -5.4810   -2.1890    2.8160 H   0  0
   -3.3070    0.2600    1.2850 H   0  0
   -3.5270    0.4220    3.0230 H   0  0
   -4.8730   -0.0900    2.0100 H   0  0
    2.4360   -0.8090   -1.5780 H   0  0
   -6.1990   -4.4080    3.3750 H   0  0
   -4.9840   -5.2730    4.3110 H   0  0
   -5.2130   -5.6460    2.6060 H   0  0
   -0.7380    1.0920   -1.7250 H   0  0
    4.3200    0.1020   -1.9430 H   0  0
   -0.7770    3.5760   -1.8630 H   0  0
    1.3610    4.8620   -2.0510 H   0  0
    5.8770    4.2290   -3.7130 H   0  0
    3.0330    5.5470   -0.7250 H   0  0
    5.7400    8.2400   -2.4770 H   0  0
  1  2  2  0
  1  3  2  0
  1  4  1  0
  1  5  1  0
  4  6  1  0
  5  7  2  0
  5  8  1  0
  6  9  1  0
  6 10  1  0
  7 11  1  0
  7 12  1  0
  8 13  2  0
  8 14  1  0
  9 15  1  0
 11 16  2  0
 15 17  1  0
 16 18  1  0
 17 19  2  0
 17 20  1  0
 19 21  1  0
 19 22  1  0
 20 23  2  0
 21 24  1  0
 21 25  2  0
 22 26  2  0
 24 27  1  0
 27 28  2  0
 27 29  1  0
 28 30  1  0
 29 31  2  0
 30 32  2  0
 13 16  1  0
 23 25  1  0
 24 26  1  0
 31 32  1  0
  4 33  1  0
  6 34  1  0
  9 35  1  0
  9 36  1  0
 10 37  1  0
 10 38  1  0
 10 39  1  0
 11 40  1  0
 12 41  1  0
 12 42  1  0
 12 43  1  0
 13 44  1  0
 14 45  1  0
 14 46  1  0
 14 47  1  0
 15 48  1  0
 18 49  1  0
 18 50  1  0
 18 51  1  0
 20 52  1  0
 22 53  1  0
 23 54  1  0
 25 55  1  0
 28 56  1  0
 29 57  1  0
 32 58  1  0
M  END
> <Name>
CHEMBL3261411

> <IC50 nM>
5.3

> <Molecule_ChEMBL_ID>
CHEMBL3261411

> <Smiles>
Cc1cc(C)c(S(=O)(=O)N[C@@H](C)CNc2cccc3c2cnn3-c2cncnc2)c(C)c1

$$$$
CHEMBL236755
  SciTegic08162514323D

 55 56  0  0  1  0            999 V2000
    6.1170    0.0780   -2.7810 F   0  0
    5.3730   -0.3950   -1.7830 C   0  0
    4.1800    0.2560   -1.4260 C   0  0
    5.7810   -1.5450   -1.0860 C   0  0
    3.3940   -0.2420   -0.3710 C   0  0
    4.9960   -2.0430   -0.0330 C   0  0
    3.8010   -1.3950    0.3280 C   0  0
    2.1330    0.4550    0.0000 C   0  0
    3.0720   -1.8710    1.3180 O   0  0
    1.2320   -0.5570   -0.7110 C   0  0
    2.0590    1.8500   -0.6210 C   0  0
    1.9220    0.4690    1.5140 C   0  0
    3.6150   -2.9280    2.0980 C   0  0
   -0.2110   -0.0680   -0.8480 C   0  0  1  0  0  0
   -0.2440    0.9410   -1.8300 O   0  0
   -1.0260   -1.2580   -1.3560 C   0  0
   -0.7620    0.5120    0.4550 C   0  0
   -1.1600   -2.1820   -0.3540 F   0  0
   -0.3830   -1.8300   -2.4240 F   0  0
   -2.2680   -0.8260   -1.7480 F   0  0
   -2.2360    0.6830    0.3950 C   0  0
   -3.0800   -0.3050    0.9280 C   0  0
   -2.7850    1.8360   -0.1930 C   0  0
   -4.4770   -0.1500    0.8750 C   0  0
   -4.1800    2.0060   -0.2540 C   0  0
   -5.0260    1.0080    0.2830 C   0  0
   -5.3420   -1.2190    1.4510 C   0  0
   -4.7310    3.2380   -0.8850 C   0  0
   -6.4570    1.1740    0.2250 C   0  0
   -7.6100    1.3090    0.1780 N   0  0
    3.8670    1.1410   -1.9610 H   0  0
    6.6970   -2.0490   -1.3570 H   0  0
    5.3120   -2.9280    0.5000 H   0  0
    1.2660   -1.5240   -0.2090 H   0  0
    1.6440   -0.8200   -1.6860 H   0  0
    2.9510    2.4370   -0.4080 H   0  0
    1.1990    2.3980   -0.2340 H   0  0
    1.9510    1.7850   -1.7030 H   0  0
    2.8650    0.5270    2.0550 H   0  0
    1.4040   -0.4340    1.8400 H   0  0
    1.3140    1.3260    1.8110 H   0  0
    3.6760   -3.8190    1.4710 H   0  0
    4.5510   -2.5820    2.5370 H   0  0
    2.9240   -3.1430    2.9120 H   0  0
   -0.3930    1.7830   -1.3710 H   0  0
   -0.2930    1.4710    0.6780 H   0  0
   -0.5040   -0.1250    1.3010 H   0  0
   -2.6520   -1.1900    1.3810 H   0  0
   -2.1330    2.5940   -0.6020 H   0  0
   -6.3440   -1.2620    1.0230 H   0  0
   -5.4460   -1.0670    2.5250 H   0  0
   -4.8730   -2.1900    1.2950 H   0  0
   -3.9710    3.9300   -1.2540 H   0  0
   -5.3440    3.7750   -0.1600 H   0  0
   -5.3670    2.9650   -1.7250 H   0  0
  1  2  1  0
  2  3  2  0
  2  4  1  0
  3  5  1  0
  4  6  2  0
  5  7  2  0
  5  8  1  0
  7  9  1  0
  8 10  1  0
  8 11  1  0
  8 12  1  0
  9 13  1  0
 10 14  1  0
 14 15  1  0
 14 16  1  0
 14 17  1  0
 16 18  1  0
 16 19  1  0
 16 20  1  0
 17 21  1  0
 21 22  2  0
 21 23  1  0
 22 24  1  0
 23 25  2  0
 24 26  2  0
 24 27  1  0
 25 28  1  0
 26 29  1  0
 29 30  3  0
  6  7  1  0
 25 26  1  0
  3 31  1  0
  4 32  1  0
  6 33  1  0
 10 34  1  0
 10 35  1  0
 11 36  1  0
 11 37  1  0
 11 38  1  0
 12 39  1  0
 12 40  1  0
 12 41  1  0
 13 42  1  0
 13 43  1  0
 13 44  1  0
 15 45  1  0
 17 46  1  0
 17 47  1  0
 22 48  1  0
 23 49  1  0
 27 50  1  0
 27 51  1  0
 27 52  1  0
 28 53  1  0
 28 54  1  0
 28 55  1  0
M  END
> <Name>
CHEMBL236755

> <IC50 nM>
11

> <Molecule_ChEMBL_ID>
CHEMBL236755

> <Smiles>
COc1ccc(F)cc1C(C)(C)CC(O)(Cc1cc(C)c(C#N)c(C)c1)C(F)(F)F

$$$$
CHEMBL3261409
  SciTegic08162514323D

 63 66  0  0  1  0            999 V2000
   -0.8030   -4.1110    0.3510 S   0  0
   -1.8090   -5.1600    0.3730 O   0  0
    0.0530   -4.1620   -0.8200 O   0  0
   -1.6780   -2.6110    0.2420 N   0  0
    0.1890   -4.2790    1.7580 C   0  0
   -2.4410   -2.3540   -0.9670 C   0  0  2  0  0  0
    0.3750   -5.5490    2.3380 C   0  0
    0.8090   -3.1490    2.3200 C   0  0
   -2.8070   -0.8710   -1.0650 C   0  0
   -3.6640   -3.2680   -1.0310 C   0  0
    1.1840   -5.6840    3.4800 C   0  0
   -0.2750   -6.7480    1.7480 C   0  0
    1.6150   -3.2890    3.4650 C   0  0
    0.6150   -1.8050    1.7130 C   0  0
   -1.6020   -0.0410   -1.1940 N   0  0
    1.8030   -4.5550    4.0450 C   0  0
   -1.7130    1.3010   -1.2640 C   0  0
    2.6560   -4.7010    5.2540 C   0  0
   -0.4790    2.0270   -1.3710 C   0  0
   -2.9550    1.9860   -1.2350 C   0  0
   -0.5550    3.4120   -1.4450 C   0  0
    0.7970    1.4650   -1.4100 C   0  0
   -2.9810    3.4020   -1.3150 C   0  0
    0.7480    3.7790   -1.5370 N   0  0
   -1.7730    4.1330   -1.4200 C   0  0
    1.5120    2.6370   -1.5140 N   0  0
    1.2340    5.0450   -1.6330 C   0  0
    2.2660    5.3400   -2.5470 C   0  0
    0.7050    6.0660   -0.8200 C   0  0
    2.7660    6.6500   -2.6450 C   0  0
    1.2070    7.3750   -0.9220 C   0  0
    2.2360    7.6680   -1.8320 C   0  0
    3.8560    6.9590   -3.6100 C   0  0
   -2.3130   -2.5240    1.0490 H   0  0
   -1.7170   -2.6230   -1.7370 H   0  0
   -3.3670   -0.5550   -0.1860 H   0  0
   -3.4590   -0.6910   -1.9180 H   0  0
   -3.3610   -4.3110   -1.1370 H   0  0
   -4.2740   -3.1620   -0.1330 H   0  0
   -4.2890   -3.0160   -1.8890 H   0  0
    1.3260   -6.6580    3.9280 H   0  0
   -0.1970   -6.8150    0.6620 H   0  0
   -1.3360   -6.7500    2.0060 H   0  0
    0.1700   -7.6490    2.1700 H   0  0
    2.0920   -2.4200    3.8960 H   0  0
    0.6740   -1.7930    0.6250 H   0  0
    1.3730   -1.1210    2.0940 H   0  0
   -0.3610   -1.4140    2.0000 H   0  0
   -0.6990   -0.4690   -1.2310 H   0  0
    3.0900   -3.7680    5.6110 H   0  0
    3.4750   -5.3890    5.0390 H   0  0
    2.0660   -5.1270    6.0640 H   0  0
   -3.8850    1.4410   -1.1540 H   0  0
    1.1720    0.4490   -1.3730 H   0  0
   -3.9260    3.9240   -1.2930 H   0  0
   -1.7870    5.2110   -1.4810 H   0  0
    2.6820    4.5640   -3.1780 H   0  0
   -0.0860    5.8610   -0.1130 H   0  0
    0.8030    8.1580   -0.2970 H   0  0
    2.6170    8.6760   -1.9040 H   0  0
    4.1720    8.0020   -3.6080 H   0  0
    3.5270    6.7110   -4.6190 H   0  0
    4.7270    6.3480   -3.3810 H   0  0
  1  2  2  0
  1  3  2  0
  1  4  1  0
  1  5  1  0
  4  6  1  0
  5  7  2  0
  5  8  1  0
  6  9  1  0
  6 10  1  0
  7 11  1  0
  7 12  1  0
  8 13  2  0
  8 14  1  0
  9 15  1  0
 11 16  2  0
 15 17  1  0
 16 18  1  0
 17 19  2  0
 17 20  1  0
 19 21  1  0
 19 22  1  0
 20 23  2  0
 21 24  1  0
 21 25  2  0
 22 26  2  0
 24 27  1  0
 27 28  2  0
 27 29  1  0
 28 30  1  0
 29 31  2  0
 30 32  2  0
 30 33  1  0
 13 16  1  0
 23 25  1  0
 24 26  1  0
 31 32  1  0
  4 34  1  0
  6 35  1  0
  9 36  1  0
  9 37  1  0
 10 38  1  0
 10 39  1  0
 10 40  1  0
 11 41  1  0
 12 42  1  0
 12 43  1  0
 12 44  1  0
 13 45  1  0
 14 46  1  0
 14 47  1  0
 14 48  1  0
 15 49  1  0
 18 50  1  0
 18 51  1  0
 18 52  1  0
 20 53  1  0
 22 54  1  0
 23 55  1  0
 25 56  1  0
 28 57  1  0
 29 58  1  0
 31 59  1  0
 32 60  1  0
 33 61  1  0
 33 62  1  0
 33 63  1  0
M  END
> <Name>
CHEMBL3261409

> <IC50 nM>
6.6

> <Molecule_ChEMBL_ID>
CHEMBL3261409

> <Smiles>
Cc1cccc(-n2ncc3c(NC[C@H](C)NS(=O)(=O)c4c(C)cc(C)cc4C)cccc32)c1

$$$$
CHEMBL3261167
  SciTegic08162514323D

 51 53  0  0  1  0            999 V2000
   -0.7500   -2.4200   -0.2310 S   0  0
   -1.9610   -3.2130   -0.1110 O   0  0
   -0.0160   -2.6760   -1.4590 O   0  0
   -1.2690   -0.7620   -0.3200 N   0  0
    0.2790   -2.7950    1.1050 C   0  0
   -2.0290   -0.3480   -1.4880 C   0  0  2  0  0  0
    0.2170   -4.0660    1.7070 C   0  0
    1.1780   -1.8260    1.5940 C   0  0
   -2.1170    1.1780   -1.5570 C   0  0
   -3.4020   -1.0180   -1.4980 C   0  0
    1.0570   -4.3690    2.7930 C   0  0
   -0.7300   -5.0920    1.1970 C   0  0
    2.0160   -2.1330    2.6820 C   0  0
    1.2500   -0.4820    0.9630 C   0  0
   -0.8070    1.7250   -1.6090 O   0  0
    1.9550   -3.4020    3.2810 C   0  0
   -0.6850    3.0610   -1.6740 C   0  0
    2.8400   -3.7250    4.4320 C   0  0
    0.5940    3.6780   -1.7310 C   0  0
   -1.8520    3.8590   -1.6860 C   0  0
    0.6880    5.1060   -1.8010 C   0  0
    1.7870    2.9060   -1.7190 C   0  0
   -1.7540    5.2700   -1.7520 C   0  0
    1.9710    5.7110   -1.8610 C   0  0
   -0.4880    5.8970   -1.8130 C   0  0
    3.0370    3.5700   -1.7790 C   0  0
    3.1190    4.9470   -1.8500 N   0  0
   -1.8160   -0.5270    0.5200 H   0  0
   -1.4060   -0.7340   -2.2950 H   0  0
   -2.6170    1.5740   -0.6720 H   0  0
   -2.6560    1.4940   -2.4490 H   0  0
   -3.3070   -2.0920   -1.6520 H   0  0
   -3.9280   -0.8380   -0.5610 H   0  0
   -4.0200   -0.6210   -2.3070 H   0  0
    1.0100   -5.3440    3.2560 H   0  0
   -0.7460   -5.1880    0.1110 H   0  0
   -1.7400   -4.8480    1.5230 H   0  0
   -0.4710   -6.0650    1.6130 H   0  0
    2.7050   -1.3910    3.0550 H   0  0
    1.2210   -0.4940   -0.1270 H   0  0
    2.1720    0.0140    1.2680 H   0  0
    0.4140    0.1270    1.3120 H   0  0
    3.4980   -2.9100    4.7320 H   0  0
    3.4650   -4.5820    4.1800 H   0  0
    2.2310   -3.9960    5.2930 H   0  0
   -2.8240    3.3930   -1.6410 H   0  0
    1.7600    1.8260   -1.6660 H   0  0
   -2.6520    5.8710   -1.7600 H   0  0
    2.0670    6.7870   -1.9160 H   0  0
   -0.4340    6.9750   -1.8630 H   0  0
    3.9470    2.9860   -1.7700 H   0  0
  1  2  2  0
  1  3  2  0
  1  4  1  0
  1  5  1  0
  4  6  1  0
  5  7  2  0
  5  8  1  0
  6  9  1  0
  6 10  1  0
  7 11  1  0
  7 12  1  0
  8 13  2  0
  8 14  1  0
  9 15  1  0
 11 16  2  0
 15 17  1  0
 16 18  1  0
 17 19  2  0
 17 20  1  0
 19 21  1  0
 19 22  1  0
 20 23  2  0
 21 24  1  0
 21 25  2  0
 22 26  2  0
 24 27  2  0
 13 16  1  0
 23 25  1  0
 26 27  1  0
  4 28  1  0
  6 29  1  0
  9 30  1  0
  9 31  1  0
 10 32  1  0
 10 33  1  0
 10 34  1  0
 11 35  1  0
 12 36  1  0
 12 37  1  0
 12 38  1  0
 13 39  1  0
 14 40  1  0
 14 41  1  0
 14 42  1  0
 18 43  1  0
 18 44  1  0
 18 45  1  0
 20 46  1  0
 22 47  1  0
 23 48  1  0
 24 49  1  0
 25 50  1  0
 26 51  1  0
M  END
> <Name>
CHEMBL3261167

> <IC50 nM>
18

> <Molecule_ChEMBL_ID>
CHEMBL3261167

> <Smiles>
Cc1cc(C)c(S(=O)(=O)N[C@@H](C)COc2cccc3cnccc23)c(C)c1

$$$$
CHEMBL3261165
  SciTegic08162514323D

 48 49  0  0  1  0            999 V2000
   -1.4100    1.5470   -0.5860 S   0  0
   -1.5470    2.2700   -1.8380 O   0  0
   -2.6720    1.0330   -0.0800 O   0  0
   -0.4340    0.1530   -0.9420 N   0  0
   -0.7480    2.6230    0.5960 C   0  0
   -0.9880   -0.8630   -1.8200 C   0  0  2  0  0  0
   -0.9840    4.0060    0.4960 C   0  0
    0.0250    2.1130    1.6540 C   0  0
   -0.1370   -2.1330   -1.7790 C   0  0
   -1.1560   -0.3100   -3.2360 C   0  0
   -0.4450    4.8810    1.4570 C   0  0
   -1.8010    4.5510   -0.6210 C   0  0
    0.5620    2.9900    2.6130 C   0  0
    0.2790    0.6530    1.7660 C   0  0
   -0.1040   -2.7750   -0.3930 C   0  0
    0.3280    4.3730    2.5160 C   0  0
    0.6860   -4.0350   -0.3930 C   0  0
    0.8960    5.2990    3.5310 C   0  0
    0.0270   -5.2790   -0.3930 C   0  0
    2.0920   -3.9860   -0.3930 C   0  0
    0.7750   -6.4710   -0.3930 C   0  0
    2.8380   -5.1780   -0.3930 C   0  0
    2.1800   -6.4180   -0.3930 C   0  0
    0.4710    0.4550   -1.3300 H   0  0
   -1.9590   -1.0370   -1.3580 H   0  0
    0.8750   -1.9300   -2.1330 H   0  0
   -0.4730   -2.8480   -2.5290 H   0  0
   -1.9260    0.4610   -3.2600 H   0  0
   -0.2190    0.1100   -3.6000 H   0  0
   -1.4550   -1.1010   -3.9260 H   0  0
   -0.6270    5.9440    1.3810 H   0  0
   -2.7210    3.9980   -0.8170 H   0  0
   -1.2110    4.5490   -1.5370 H   0  0
   -2.0740    5.5840   -0.4020 H   0  0
    1.1580    2.6000    3.4280 H   0  0
   -0.5940    0.0290    1.5740 H   0  0
    0.6390    0.4220    2.7690 H   0  0
    1.0570    0.3630    1.0590 H   0  0
   -1.1150   -2.9800   -0.0390 H   0  0
    0.3110   -2.0880    0.3440 H   0  0
    1.4800    4.8070    4.3090 H   0  0
    0.0880    5.8460    4.0160 H   0  0
    1.5430    6.0260    3.0390 H   0  0
   -1.0510   -5.3240   -0.3930 H   0  0
    2.6040   -3.0350   -0.3930 H   0  0
    0.2690   -7.4240   -0.3930 H   0  0
    3.9160   -5.1390   -0.3930 H   0  0
    2.7520   -7.3340   -0.3930 H   0  0
  1  2  2  0
  1  3  2  0
  1  4  1  0
  1  5  1  0
  4  6  1  0
  5  7  2  0
  5  8  1  0
  6  9  1  0
  6 10  1  0
  7 11  1  0
  7 12  1  0
  8 13  2  0
  8 14  1  0
  9 15  1  0
 11 16  2  0
 15 17  1  0
 16 18  1  0
 17 19  2  0
 17 20  1  0
 19 21  1  0
 20 22  2  0
 21 23  2  0
 13 16  1  0
 22 23  1  0
  4 24  1  0
  6 25  1  0
  9 26  1  0
  9 27  1  0
 10 28  1  0
 10 29  1  0
 10 30  1  0
 11 31  1  0
 12 32  1  0
 12 33  1  0
 12 34  1  0
 13 35  1  0
 14 36  1  0
 14 37  1  0
 14 38  1  0
 15 39  1  0
 15 40  1  0
 18 41  1  0
 18 42  1  0
 18 43  1  0
 19 44  1  0
 20 45  1  0
 21 46  1  0
 22 47  1  0
 23 48  1  0
M  END
> <Name>
CHEMBL3261165

> <IC50 nM>
55

> <Molecule_ChEMBL_ID>
CHEMBL3261165

> <Smiles>
Cc1cc(C)c(S(=O)(=O)N[C@@H](C)CCc2ccccc2)c(C)c1

$$$$
CHEMBL222515
  SciTegic08162514323D

 70 75  0  0  1  0            999 V2000
   -3.9690   -0.7090    3.9920 O   0  0
   -3.5510   -0.3950    2.9020 C   0  0
   -3.6580    0.9980    2.4410 C   0  0
   -2.8980   -1.4140    1.9960 C   0  0
   -2.8160    1.4960    1.5140 C   0  0
   -1.9880   -0.8420    0.8930 C   0  0
   -1.7540    0.6620    0.9240 C   0  0
   -2.8980    2.9360    1.0680 C   0  0
   -0.6070    1.2320    0.4650 C   0  0
   -1.5080    3.5490    1.2600 C   0  0
    0.5720    0.4040   -0.0590 C   0  0  1  0  0  0
   -0.4020    2.7500    0.5230 C   0  0  1  0  0  0
    0.2170   -0.5180   -1.1860 C   0  0
    1.8260    1.2400   -0.4360 C   0  0
    0.9320    2.9450    1.2560 C   0  0  1  0  0  0
    0.6900   -1.8420   -1.1860 C   0  0
   -0.5880   -0.0610   -2.2420 C   0  0
    2.1100    2.5510    0.3400 C   0  0  1  0  0  0
    1.4320    4.2560    1.8630 C   0  0
    0.3560   -2.7070   -2.2420 C   0  0
   -0.9200   -0.9260   -3.2990 C   0  0
    3.2270    2.5780    1.4200 C   0  0  2  0  0  0
    2.3600    3.6780   -0.6930 C   0  0
    2.8770    3.8630    2.2290 C   0  0
   -0.4490   -2.2520   -3.3010 C   0  0
    4.5160    2.6880    0.8420 O   0  0
    3.2170    1.3690    2.2700 C   0  0
   -0.7620   -3.0630   -4.2910 O   0  0
    3.1880    0.3930    2.9510 C   0  0
   -0.9980   -4.3280   -4.0040 C   0  0
    3.1290   -0.8140    3.7770 C   0  0
   -0.5800   -5.3420   -4.8850 C   0  0
   -1.6680   -4.6700   -2.8160 C   0  0
   -0.8300   -6.6900   -4.5800 C   0  0
   -1.9180   -6.0180   -2.5100 C   0  0
   -1.5000   -7.0290   -3.3930 C   0  0
   -4.4220    1.6290    2.8710 H   0  0
   -2.3240   -2.1150    2.6040 H   0  0
   -3.6870   -2.0060    1.5330 H   0  0
   -1.0450   -1.3810    0.9610 H   0  0
   -2.4180   -1.0900   -0.0800 H   0  0
   -3.6440    3.4880    1.6390 H   0  0
   -3.1970    2.9820    0.0200 H   0  0
   -1.3090    3.5880    2.3320 H   0  0
   -1.5040    4.5860    0.9200 H   0  0
    0.8730   -0.2460    0.7640 H   0  0
   -0.3360    3.1310   -0.4940 H   0  0
    2.7090    0.6040   -0.4040 H   0  0
    1.7230    1.5040   -1.4900 H   0  0
    0.8590    2.2850    2.1090 H   0  0
    1.3090   -2.2010   -0.3750 H   0  0
   -0.9530    0.9570   -2.2480 H   0  0
    0.8610    4.5720    2.7250 H   0  0
    1.4060    5.0670    1.1480 H   0  0
    0.7190   -3.7250   -2.2380 H   0  0
   -1.5390   -0.5700   -4.1090 H   0  0
    2.8070    4.5590   -0.2340 H   0  0
    1.4240    3.9840   -1.1620 H   0  0
    3.0290    3.3380   -1.4820 H   0  0
    3.5310    4.6920    1.9940 H   0  0
    2.9630    3.7090    3.2950 H   0  0
    5.1390    2.8690    1.5640 H   0  0
    3.9200   -0.8120    4.5290 H   0  0
    2.1680   -0.8770    4.2910 H   0  0
    3.2440   -1.7050    3.1600 H   0  0
   -0.0660   -5.0840   -5.7990 H   0  0
   -1.9900   -3.8950   -2.1350 H   0  0
   -0.5100   -7.4670   -5.2580 H   0  0
   -2.4340   -6.2770   -1.5960 H   0  0
   -1.6930   -8.0650   -3.1560 H   0  0
  1  2  2  0
  2  3  1  0
  2  4  1  0
  3  5  2  0
  4  6  1  0
  5  7  1  0
  5  8  1  0
  7  9  2  0
  8 10  1  0
  9 11  1  0
  9 12  1  0
 11 13  1  0
 11 14  1  0
 12 15  1  0
 13 16  2  0
 13 17  1  0
 14 18  1  0
 15 19  1  0
 16 20  1  0
 17 21  2  0
 18 22  1  0
 18 23  1  0
 19 24  1  0
 20 25  2  0
 22 26  1  0
 22 27  1  0
 25 28  1  0
 27 29  3  0
 28 30  1  0
 29 31  1  0
 30 32  2  0
 30 33  1  0
 32 34  1  0
 33 35  2  0
 34 36  2  0
  6  7  1  0
 12 10  1  0
 15 18  1  0
 21 25  1  0
 22 24  1  0
 35 36  1  0
  3 37  1  0
  4 38  1  0
  4 39  1  0
  6 40  1  0
  6 41  1  0
  8 42  1  0
  8 43  1  0
 10 44  1  0
 10 45  1  0
 11 46  1  0
 12 47  1  0
 14 48  1  0
 14 49  1  0
 15 50  1  0
 16 51  1  0
 17 52  1  0
 19 53  1  0
 19 54  1  0
 20 55  1  0
 21 56  1  0
 23 57  1  0
 23 58  1  0
 23 59  1  0
 24 60  1  0
 24 61  1  0
 26 62  1  0
 31 63  1  0
 31 64  1  0
 31 65  1  0
 32 66  1  0
 33 67  1  0
 34 68  1  0
 35 69  1  0
 36 70  1  0
M  END
> <Name>
CHEMBL222515

> <IC50 nM>
1.5

> <Molecule_ChEMBL_ID>
CHEMBL222515

> <Smiles>
CC#C[C@]1(O)CC[C@H]2[C@@H]3CCC4=CC(=O)CCC4=C3[C@@H](c3ccc(Oc4ccccc4)cc3)C[C@@]21C

$$$$
CHEMBL4101250
  SciTegic08162514323D

 76 81  0  0  1  0            999 V2000
   -4.9980   -2.1470   -4.7460 F   0  0
   -3.8180   -2.1520   -5.4430 C   0  0
   -4.0840   -2.1190   -6.7890 F   0  0
   -2.9670   -0.9770   -5.0470 C   0  0
   -3.0350   -3.4220   -5.1090 C   0  0
   -2.4650   -0.2620   -5.8810 O   0  0
   -2.7660   -0.7320   -3.7170 N   0  0
   -1.9360    0.4100   -3.3130 C   0  0  1  0  0  0
   -2.2990    0.8810   -1.9040 C   0  0  2  0  0  0
   -0.4470    0.0880   -3.4590 C   0  0
   -2.3240   -0.2340   -1.0230 O   0  0
   -3.6080    1.5530   -1.8790 C   0  0
   -1.1520   -0.7130   -0.5820 C   0  0
   -4.7910    0.7930   -1.7190 C   0  0
   -3.6820    2.9610   -2.0180 C   0  0
   -0.8830   -2.1060   -0.6600 C   0  0
   -0.1880    0.1760   -0.0350 C   0  0
   -6.0490    1.4390   -1.6990 C   0  0
   -4.9380    3.6110   -1.9840 C   0  0
    0.3610   -2.6000   -0.1880 C   0  0
    1.0530   -0.3220    0.4360 C   0  0
   -7.1800    0.7150   -1.5760 O   0  0
   -6.1210    2.8560   -1.8090 C   0  0
    1.2830   -1.7150    0.3400 C   0  0
    0.6950   -3.9410   -0.2320 C   0  0
   -8.4450    1.3300   -1.8500 C   0  0
   -7.3170    3.4770   -1.7460 O   0  0
    2.3130   -2.5370    0.6720 N   0  0
    1.9470   -3.8200    0.3320 N   0  0
   -8.4630    2.7560   -1.2750 C   0  0
    3.4920   -2.1760    1.2380 C   0  0
    3.5180   -1.2270    2.2770 C   0  0
    4.6950   -2.7520    0.7870 C   0  0
    4.7420   -0.8540    2.8630 C   0  0
    5.9180   -2.3790    1.3730 C   0  0
    4.7700    0.1540    3.9650 C   0  0
    5.9410   -1.4320    2.4100 C   0  0
    3.8830    0.9670    4.0860 O   0  0
    5.8180    0.1430    4.8420 N   0  0
    5.8590    1.1310    5.9360 C   0  0  1  0  0  0
    6.9900    0.8950    6.9340 C   0  0
    6.1130    2.5800    5.4710 C   0  0
    7.1620    2.1720    7.4920 O   0  0
    7.1470    3.1270    6.4630 C   0  0
   -3.5800   -4.3220   -5.3910 H   0  0
   -2.8300   -3.4770   -4.0390 H   0  0
   -2.0800   -3.4340   -5.6330 H   0  0
   -3.1800   -1.3260   -3.0270 H   0  0
   -2.0610    1.2190   -4.0330 H   0  0
   -1.5290    1.5700   -1.5590 H   0  0
   -0.1950   -0.0980   -4.5040 H   0  0
    0.1640    0.9080   -3.0860 H   0  0
   -0.1890   -0.8070   -2.8910 H   0  0
   -4.7380   -0.2810   -1.6130 H   0  0
   -2.7810    3.5430   -2.1500 H   0  0
   -1.6250   -2.7720   -1.0780 H   0  0
   -0.3970    1.2320    0.0210 H   0  0
   -4.9900    4.6860   -2.0880 H   0  0
    1.7950    0.3420    0.8520 H   0  0
    0.1870   -4.8320   -0.5800 H   0  0
   -8.5880    1.3550   -2.9300 H   0  0
   -9.2360    0.7110   -1.4240 H   0  0
   -9.3610    3.3010   -1.5610 H   0  0
   -8.4240    2.7250   -0.1860 H   0  0
    2.6000   -0.7750    2.6330 H   0  0
    4.6970   -3.4820   -0.0100 H   0  0
    6.8400   -2.8200    1.0250 H   0  0
    6.8870   -1.1500    2.8540 H   0  0
    6.5470   -0.5330    4.7340 H   0  0
    4.9120    1.0900    6.4570 H   0  0
    7.9160    0.6130    6.4470 H   0  0
    6.7560    0.1680    7.6990 H   0  0
    6.5000    2.6410    4.4610 H   0  0
    5.1990    3.1540    5.5020 H   0  0
    6.9100    4.1060    6.8500 H   0  0
    8.1290    3.1500    6.0140 H   0  0
  1  2  1  0
  2  3  1  0
  2  4  1  0
  2  5  1  0
  4  6  2  0
  4  7  1  0
  7  8  1  0
  8  9  1  0
  8 10  1  0
  9 11  1  0
  9 12  1  0
 11 13  1  0
 12 14  2  0
 12 15  1  0
 13 16  2  0
 13 17  1  0
 14 18  1  0
 15 19  2  0
 16 20  1  0
 17 21  2  0
 18 22  1  0
 18 23  2  0
 20 24  2  0
 20 25  1  0
 22 26  1  0
 23 27  1  0
 24 28  1  0
 25 29  2  0
 26 30  1  0
 28 31  1  0
 31 32  2  0
 31 33  1  0
 32 34  1  0
 33 35  2  0
 34 36  1  0
 34 37  2  0
 36 38  2  0
 36 39  1  0
 40 39  1  0
 40 41  1  0
 40 42  1  0
 41 43  1  0
 42 44  1  0
 19 23  1  0
 21 24  1  0
 27 30  1  0
 28 29  1  0
 35 37  1  0
 43 44  1  0
  5 45  1  0
  5 46  1  0
  5 47  1  0
  7 48  1  0
  8 49  1  0
  9 50  1  0
 10 51  1  0
 10 52  1  0
 10 53  1  0
 14 54  1  0
 15 55  1  0
 16 56  1  0
 17 57  1  0
 19 58  1  0
 21 59  1  0
 25 60  1  0
 26 61  1  0
 26 62  1  0
 30 63  1  0
 30 64  1  0
 32 65  1  0
 33 66  1  0
 35 67  1  0
 37 68  1  0
 39 69  1  0
 40 70  1  0
 41 71  1  0
 41 72  1  0
 42 73  1  0
 42 74  1  0
 44 75  1  0
 44 76  1  0
M  END
> <Name>
CHEMBL4101250

> <IC50 nM>
1000

> <Molecule_ChEMBL_ID>
CHEMBL4101250

> <Smiles>
C[C@@H](NC(=O)C(C)(F)F)[C@H](Oc1ccc2c(cnn2-c2cccc(C(=O)N[C@@H]3CCOC3)c2)c1)c1ccc2c(c1)OCCO2

$$$$
CHEMBL4088914
  SciTegic08162514323D

 34 35  0  0  1  0            999 V2000
   -3.8770    2.4320   -0.6110 F   0  0
   -3.1270    1.7440   -1.5290 C   0  0
   -3.9160    1.3990   -2.5980 F   0  0
   -2.0940    2.5350   -1.9610 F   0  0
   -2.5780    0.5100   -0.8990 C   0  0
   -3.4260   -0.4920   -0.3590 C   0  0
   -1.1800    0.3400   -0.8380 C   0  0
   -4.8500   -0.3200   -0.4220 C   0  0
   -2.8750   -1.6410    0.2270 C   0  0
   -0.6350   -0.8140   -0.2480 C   0  0
   -6.0040   -0.1800   -0.4730 N   0  0
   -1.4860   -1.8070    0.2850 C   0  0
    0.7250   -0.9670   -0.1950 N   0  0
    1.3810   -2.1930   -0.3690 C   0  0
    1.6680    0.1250    0.0370 C   0  0  2  0  0  0
    0.8360   -3.2560   -0.5680 O   0  0
    2.8590   -1.9360   -0.2580 C   0  0
    3.0000   -0.5590    0.4140 C   0  0  2  0  0  0
    1.1860    1.1680    1.0510 C   0  0
    3.1130   -0.7400    1.8160 O   0  0
    2.1370    2.3650    1.0410 C   0  0
   -0.5350    1.1150   -1.2560 H   0  0
   -3.5080   -2.4020    0.6370 H   0  0
   -1.0740   -2.6860    0.7340 H   0  0
    1.8090    0.6290   -0.9080 H   0  0
    3.3550   -2.7320    0.2810 H   0  0
    3.2830   -1.9100   -1.2520 H   0  0
    3.8670   -0.0120    0.0740 H   0  0
    1.1210    0.7360    2.0490 H   0  0
    0.1680    1.4840    0.8240 H   0  0
    3.5290    0.0590    2.1760 H   0  0
    1.8110    3.1230    1.7520 H   0  0
    3.1500    2.0550    1.2950 H   0  0
    2.1680    2.8260    0.0530 H   0  0
  1  2  1  0
  2  3  1  0
  2  4  1  0
  2  5  1  0
  5  6  2  0
  5  7  1  0
  6  8  1  0
  6  9  1  0
  7 10  2  0
  8 11  3  0
  9 12  2  0
 10 13  1  0
 13 14  1  0
 13 15  1  0
 14 16  2  0
 14 17  1  0
 15 18  1  0
 15 19  1  0
 18 20  1  0
 19 21  1  0
 10 12  1  0
 17 18  1  0
  7 22  1  0
  9 23  1  0
 12 24  1  0
 15 25  1  0
 17 26  1  0
 17 27  1  0
 18 28  1  0
 19 29  1  0
 19 30  1  0
 20 31  1  0
 21 32  1  0
 21 33  1  0
 21 34  1  0
M  END
> <Name>
CHEMBL4088914

> <IC50 nM>
10000

> <Molecule_ChEMBL_ID>
CHEMBL4088914

> <Smiles>
CC[C@H]1[C@@H](O)CC(=O)N1c1ccc(C#N)c(C(F)(F)F)c1

$$$$
CHEMBL4092066
  SciTegic08162514323D

 51 54  0  0  1  0            999 V2000
    4.2990   -1.5410    3.4530 F   0  0
    3.3690   -1.1950    2.5650 C   0  0
    3.2090   -1.9340    1.3710 C   0  0
    2.5410   -0.0840    2.8200 C   0  0
    4.0080   -2.9880    1.1580 O   0  0
    2.2150   -1.5700    0.4100 C   0  0
    1.5410    0.2750    1.8950 C   0  0
    1.3400   -0.4670    0.6950 C   0  0
    2.1190   -2.3550   -0.8650 C   0  0
    0.2320   -0.0660   -0.2420 C   0  0  2  0  0  0
    1.1910   -1.6970   -1.9120 C   0  0
    3.5020   -2.4880   -1.5210 C   0  0
    1.6130   -3.7700   -0.5390 C   0  0
   -0.9980    0.4080    0.4420 N   0  0
   -0.1070   -1.1290   -1.3260 C   0  0  1  0  0  0
   -1.3220    1.7130    0.4100 C   0  0
   -0.8590   -2.2010   -0.7770 O   0  0
   -0.9790   -0.5390   -2.4430 C   0  0
   -2.6780    2.1600    0.4140 C   0  0
   -0.2810    2.6760    0.3730 C   0  0
   -0.3830    0.5920   -2.9390 F   0  0
   -2.2150   -0.2230   -1.9410 F   0  0
   -1.1170   -1.4610   -3.4490 F   0  0
   -2.9810    3.5590    0.3790 C   0  0
   -3.8150    1.1860    0.4550 C   0  0
   -0.5740    4.0570    0.3380 C   0  0
   -4.2720    3.9920    0.3850 N   0  0
   -1.9160    4.4980    0.3400 C   0  0
   -5.0780    1.6540    0.4590 C   0  0
   -5.3360    3.1110    0.4220 C   0  0
   -6.4730    3.5250    0.4260 O   0  0
    2.6680    0.4920    3.7270 H   0  0
    4.6760   -3.2170    1.8190 H   0  0
    0.9260    1.1350    2.1210 H   0  0
    0.6230    0.8030   -0.7730 H   0  0
    0.9750   -2.4040   -2.7170 H   0  0
    1.7270   -0.8730   -2.3920 H   0  0
    4.1110   -3.2520   -1.0350 H   0  0
    4.0450   -1.5450   -1.4710 H   0  0
    3.4040   -2.7600   -2.5720 H   0  0
    2.4180   -4.3810   -0.1270 H   0  0
    0.7950   -3.7300    0.1800 H   0  0
    1.2460   -4.2640   -1.4370 H   0  0
   -1.5840   -0.2400    0.9240 H   0  0
   -0.6760   -2.2230    0.1760 H   0  0
    0.7560    2.3690    0.3710 H   0  0
   -3.6430    0.1190    0.4810 H   0  0
    0.2290    4.7760    0.3090 H   0  0
   -4.4730    4.9750    0.3610 H   0  0
   -2.1130    5.5590    0.3130 H   0  0
   -5.9060    0.9630    0.4880 H   0  0
  1  2  1  0
  2  3  2  0
  2  4  1  0
  3  5  1  0
  3  6  1  0
  4  7  2  0
  6  8  2  0
  6  9  1  0
  8 10  1  0
  9 11  1  0
  9 12  1  0
  9 13  1  0
 10 14  1  0
 10 15  1  0
 14 16  1  0
 15 17  1  0
 15 18  1  0
 16 19  2  0
 16 20  1  0
 18 21  1  0
 18 22  1  0
 18 23  1  0
 19 24  1  0
 19 25  1  0
 20 26  2  0
 24 27  1  0
 24 28  2  0
 25 29  2  0
 27 30  1  0
 30 31  2  0
  7  8  1  0
 11 15  1  0
 26 28  1  0
 29 30  1  0
  4 32  1  0
  5 33  1  0
  7 34  1  0
 10 35  1  0
 11 36  1  0
 11 37  1  0
 12 38  1  0
 12 39  1  0
 12 40  1  0
 13 41  1  0
 13 42  1  0
 13 43  1  0
 14 44  1  0
 17 45  1  0
 20 46  1  0
 25 47  1  0
 26 48  1  0
 27 49  1  0
 28 50  1  0
 29 51  1  0
M  END
> <Name>
CHEMBL4092066

> <IC50 nM>
15.85

> <Molecule_ChEMBL_ID>
CHEMBL4092066

> <Smiles>
CC1(C)C[C@](O)(C(F)(F)F)[C@@H](Nc2cccc3[nH]c(=O)ccc23)c2ccc(F)c(O)c21

$$$$
CHEMBL4066740
  SciTegic08162514323D

 52 55  0  0  0  0            999 V2000
    5.1870   -0.7630   -2.8360 Cl  0  0
    4.4740   -2.1330   -2.0820 C   0  0
    3.7020   -2.0060   -0.9050 C   0  0
    4.6670   -3.4060   -2.6540 C   0  0
    3.1350   -3.1490   -0.3130 C   0  0
    3.4720   -0.6790   -0.2680 C   0  0
    4.0990   -4.5430   -2.0570 C   0  0
    3.3330   -4.4150   -0.8880 C   0  0
    2.1170   -0.1770   -0.5370 N   0  0
    1.5780   -0.0770   -2.0610 S   0  0
    1.3100    0.2050    0.5020 C   0  0
    2.1980    1.0880   -2.6680 O   0  0
    1.9200   -1.3210   -2.7280 O   0  0
   -0.1350    0.1230   -2.1300 C   0  0
    1.2580   -0.5680    1.6770 C   0  0
    0.5300    1.3720    0.3970 C   0  0
   -0.6830    1.2760   -2.7190 C   0  0
   -0.9780   -0.8680   -1.5960 C   0  0
    0.4290   -0.1740    2.7420 C   0  0
   -0.2970    1.7630    1.4640 C   0  0
   -2.0770    1.4410   -2.7770 C   0  0
   -2.3730   -0.7090   -1.6510 C   0  0
   -0.3500    0.9920    2.6380 C   0  0
   -2.9180    0.4470   -2.2420 C   0  0
   -1.1270    1.3590    3.6380 O   0  0
   -4.3460    0.6130   -2.3000 C   0  0
   -2.2960    1.8940    3.3480 C   0  0
   -5.4970    0.7470   -2.3470 N   0  0
   -2.8060    2.9450    4.1320 C   0  0
   -3.0390    1.4170    2.2540 C   0  0
   -4.0520    3.5160    3.8240 C   0  0
   -4.2860    1.9870    1.9450 C   0  0
   -4.7930    3.0370    2.7300 C   0  0
    5.2530   -3.5220   -3.5550 H   0  0
    2.5430   -3.0590    0.5860 H   0  0
    4.2010    0.0370   -0.6470 H   0  0
    3.6170   -0.7630    0.8090 H   0  0
    4.2510   -5.5170   -2.4980 H   0  0
    2.8960   -5.2900   -0.4290 H   0  0
    1.8500   -1.4680    1.7770 H   0  0
    0.5560    1.9800   -0.4970 H   0  0
   -0.0330    2.0360   -3.1280 H   0  0
   -0.5540   -1.7530   -1.1430 H   0  0
    0.3920   -0.7700    3.6420 H   0  0
   -0.8940    2.6590    1.3790 H   0  0
   -2.4860    2.3320   -3.2330 H   0  0
   -3.0100   -1.4780   -1.2370 H   0  0
   -2.2390    3.3160    4.9740 H   0  0
   -2.6530    0.6110    1.6480 H   0  0
   -4.4410    4.3220    4.4270 H   0  0
   -4.8550    1.6190    1.1030 H   0  0
   -5.7510    3.4750    2.4920 H   0  0
  1  2  1  0
  2  3  2  0
  2  4  1  0
  3  5  1  0
  3  6  1  0
  4  7  2  0
  5  8  2  0
  6  9  1  0
  9 10  1  0
  9 11  1  0
 10 12  2  0
 10 13  2  0
 10 14  1  0
 11 15  2  0
 11 16  1  0
 14 17  2  0
 14 18  1  0
 15 19  1  0
 16 20  2  0
 17 21  1  0
 18 22  2  0
 19 23  2  0
 21 24  2  0
 23 25  1  0
 24 26  1  0
 25 27  1  0
 26 28  3  0
 27 29  2  0
 27 30  1  0
 29 31  1  0
 30 32  2  0
 31 33  2  0
  7  8  1  0
 20 23  1  0
 22 24  1  0
 32 33  1  0
  4 34  1  0
  5 35  1  0
  6 36  1  0
  6 37  1  0
  7 38  1  0
  8 39  1  0
 15 40  1  0
 16 41  1  0
 17 42  1  0
 18 43  1  0
 19 44  1  0
 20 45  1  0
 21 46  1  0
 22 47  1  0
 29 48  1  0
 30 49  1  0
 31 50  1  0
 32 51  1  0
 33 52  1  0
M  END
> <Name>
CHEMBL4066740

> <IC50 nM>
30000

> <Molecule_ChEMBL_ID>
CHEMBL4066740

> <Smiles>
N#Cc1ccc(S(=O)(=O)N(Cc2ccccc2Cl)c2ccc(Oc3ccccc3)cc2)cc1

$$$$
CHEMBL4101125
  SciTegic08162514323D

 56 59  0  0  0  0            999 V2000
    0.0630    2.7770    2.2710 S   0  0
    0.4860    2.9300    3.6520 O   0  0
    0.6720    3.7460    1.3770 O   0  0
    0.5230    1.3030    1.7810 N   0  0
   -1.6480    2.9770    2.2030 C   0  0
    0.4000    0.9510    0.4630 C   0  0
    1.0740    0.3440    2.7500 C   0  0
   -2.1970    4.1290    1.6130 C   0  0
   -2.4920    1.9860    2.7360 C   0  0
   -0.3030    1.7850   -0.4280 C   0  0
    0.9750   -0.2460   -0.0040 C   0  0
    2.5590    0.3090    2.7010 C   0  0
   -3.5920    4.2950    1.5550 C   0  0
   -3.8870    2.1450    2.6820 C   0  0
   -0.4280    1.4200   -1.7790 C   0  0
    0.8480   -0.6060   -1.3580 C   0  0
    3.2310   -0.9240    2.6130 C   0  0
    3.2930    1.5080    2.7440 C   0  0
   -4.4320    3.3010    2.0900 C   0  0
    0.1460    0.2270   -2.2480 C   0  0
    4.6350   -0.9570    2.5660 C   0  0
    4.6970    1.4730    2.6990 C   0  0
   -5.8610    3.4670    2.0310 C   0  0
    0.0270   -0.1130   -3.5160 O   0  0
    5.3690    0.2400    2.6090 C   0  0
   -7.0120    3.6000    1.9840 N   0  0
   -0.1350   -1.3890   -3.8030 C   0  0
    0.4670   -1.9400   -4.9470 C   0  0
   -0.9120   -2.2090   -2.9650 C   0  0
    0.2930   -3.3010   -5.2520 C   0  0
   -1.0860   -3.5680   -3.2700 C   0  0
   -0.4840   -4.1190   -4.4140 C   0  0
   -0.6460   -5.3950   -4.7010 O   0  0
   -1.3730   -6.1970   -3.7810 C   0  0
    0.6780   -0.6480    2.5350 H   0  0
    0.7480    0.6230    3.7520 H   0  0
   -1.5470    4.8910    1.2050 H   0  0
   -2.0680    1.1020    3.1890 H   0  0
   -0.7500    2.7070   -0.0880 H   0  0
    1.5180   -0.9000    0.6640 H   0  0
   -4.0000    5.1860    1.1000 H   0  0
   -4.5240    1.3750    3.0960 H   0  0
   -0.9670    2.0620   -2.4610 H   0  0
    1.2910   -1.5250   -1.7110 H   0  0
    2.6720   -1.8480    2.5800 H   0  0
    2.7830    2.4570    2.8120 H   0  0
    5.1500   -1.9040    2.5000 H   0  0
    5.2620    2.3930    2.7300 H   0  0
    6.4470    0.2150    2.5740 H   0  0
    1.0660   -1.3160   -5.5960 H   0  0
   -1.3770   -1.7930   -2.0840 H   0  0
    0.7600   -3.7170   -6.1350 H   0  0
   -1.6840   -4.1930   -2.6210 H   0  0
   -1.4510   -7.2030   -4.1950 H   0  0
   -0.8960   -6.1130   -2.8050 H   0  0
   -2.3810   -5.7930   -3.6970 H   0  0
  1  2  2  0
  1  3  2  0
  1  4  1  0
  1  5  1  0
  4  6  1  0
  4  7  1  0
  5  8  2  0
  5  9  1  0
  6 10  2  0
  6 11  1  0
  7 12  1  0
  8 13  1  0
  9 14  2  0
 10 15  1  0
 11 16  2  0
 12 17  2  0
 12 18  1  0
 13 19  2  0
 15 20  2  0
 17 21  1  0
 18 22  2  0
 19 23  1  0
 20 24  1  0
 21 25  2  0
 23 26  3  0
 24 27  1  0
 27 28  2  0
 27 29  1  0
 28 30  1  0
 29 31  2  0
 30 32  2  0
 32 33  1  0
 33 34  1  0
 14 19  1  0
 16 20  1  0
 22 25  1  0
 31 32  1  0
  7 35  1  0
  7 36  1  0
  8 37  1  0
  9 38  1  0
 10 39  1  0
 11 40  1  0
 13 41  1  0
 14 42  1  0
 15 43  1  0
 16 44  1  0
 17 45  1  0
 18 46  1  0
 21 47  1  0
 22 48  1  0
 25 49  1  0
 28 50  1  0
 29 51  1  0
 30 52  1  0
 31 53  1  0
 34 54  1  0
 34 55  1  0
 34 56  1  0
M  END
> <Name>
CHEMBL4101125

> <IC50 nM>
30000

> <Molecule_ChEMBL_ID>
CHEMBL4101125

> <Smiles>
COc1ccc(Oc2ccc(N(Cc3ccccc3)S(=O)(=O)c3ccc(C#N)cc3)cc2)cc1

$$$$
CHEMBL3261410
  SciTegic08162514323D

 60 63  0  0  1  0            999 V2000
   -0.6410   -3.7790    0.1740 S   0  0
   -1.6870   -4.7850    0.2210 O   0  0
    0.2070   -3.8930   -1.0000 O   0  0
   -1.4530   -2.2480    0.0330 N   0  0
    0.3500   -3.9590    1.5800 C   0  0
   -2.1950   -1.9790   -1.1860 C   0  0  2  0  0  0
    0.4820   -5.2210    2.1890 C   0  0
    1.0200   -2.8440    2.1130 C   0  0
   -2.5610   -0.4960   -1.2750 C   0  0
   -3.4180   -2.8930   -1.2810 C   0  0
    1.2890   -5.3650    3.3320 C   0  0
   -0.2230   -6.4040    1.6290 C   0  0
    1.8240   -2.9900    3.2580 C   0  0
    0.8830   -1.5080    1.4770 C   0  0
   -1.3540    0.3360   -1.3990 N   0  0
    1.9590   -4.2520    3.8670 C   0  0
   -1.4650    1.6780   -1.4670 C   0  0
    2.8110   -4.4060    5.0760 C   0  0
   -0.2320    2.4040   -1.5760 C   0  0
   -2.7090    2.3610   -1.4400 C   0  0
   -0.3090    3.7870   -1.6490 C   0  0
    1.0450    1.8420   -1.6130 C   0  0
   -2.7340    3.7770   -1.5180 C   0  0
    0.9960    4.1560   -1.7400 N   0  0
   -1.5250    4.5080   -1.6230 C   0  0
    1.7600    3.0140   -1.7190 N   0  0
    1.4810    5.4200   -1.8380 C   0  0
    2.5100    5.7150   -2.7520 C   0  0
    0.9550    6.4430   -1.0240 C   0  0
    3.0120    7.0250   -2.8520 C   0  0
    1.4590    7.7520   -1.1250 C   0  0
    2.4860    8.0430   -2.0390 C   0  0
   -2.0880   -2.1210    0.8340 H   0  0
   -1.4590   -2.2400   -1.9450 H   0  0
   -3.1230   -0.1840   -0.3950 H   0  0
   -3.2130   -0.3110   -2.1270 H   0  0
   -3.1110   -3.9300   -1.4160 H   0  0
   -4.0270   -2.8160   -0.3810 H   0  0
   -4.0410   -2.6150   -2.1310 H   0  0
    1.3930   -6.3340    3.8010 H   0  0
   -0.1460   -6.5020    0.5470 H   0  0
   -1.2810   -6.3520    1.8870 H   0  0
    0.1840   -7.3130    2.0740 H   0  0
    2.3400   -2.1350    3.6680 H   0  0
    0.9300   -1.5230    0.3870 H   0  0
    1.6760   -0.8500    1.8340 H   0  0
   -0.0720   -1.0650    1.7620 H   0  0
   -0.4510   -0.0940   -1.4300 H   0  0
    3.2850   -3.4830    5.4100 H   0  0
    3.5980   -5.1330    4.8750 H   0  0
    2.2070   -4.7870    5.8980 H   0  0
   -3.6390    1.8180   -1.3580 H   0  0
    1.4180    0.8260   -1.5780 H   0  0
   -3.6800    4.3010   -1.4960 H   0  0
   -1.5390    5.5860   -1.6840 H   0  0
    2.9280    4.9450   -3.3870 H   0  0
    0.1640    6.2380   -0.3150 H   0  0
    3.8010    7.2480   -3.5530 H   0  0
    1.0550    8.5350   -0.5000 H   0  0
    2.8710    9.0490   -2.1150 H   0  0
  1  2  2  0
  1  3  2  0
  1  4  1  0
  1  5  1  0
  4  6  1  0
  5  7  2  0
  5  8  1  0
  6  9  1  0
  6 10  1  0
  7 11  1  0
  7 12  1  0
  8 13  2  0
  8 14  1  0
  9 15  1  0
 11 16  2  0
 15 17  1  0
 16 18  1  0
 17 19  2  0
 17 20  1  0
 19 21  1  0
 19 22  1  0
 20 23  2  0
 21 24  1  0
 21 25  2  0
 22 26  2  0
 24 27  1  0
 27 28  2  0
 27 29  1  0
 28 30  1  0
 29 31  2  0
 30 32  2  0
 13 16  1  0
 23 25  1  0
 24 26  1  0
 31 32  1  0
  4 33  1  0
  6 34  1  0
  9 35  1  0
  9 36  1  0
 10 37  1  0
 10 38  1  0
 10 39  1  0
 11 40  1  0
 12 41  1  0
 12 42  1  0
 12 43  1  0
 13 44  1  0
 14 45  1  0
 14 46  1  0
 14 47  1  0
 15 48  1  0
 18 49  1  0
 18 50  1  0
 18 51  1  0
 20 52  1  0
 22 53  1  0
 23 54  1  0
 25 55  1  0
 28 56  1  0
 29 57  1  0
 30 58  1  0
 31 59  1  0
 32 60  1  0
M  END
> <Name>
CHEMBL3261410

> <IC50 nM>
1.5

> <Molecule_ChEMBL_ID>
CHEMBL3261410

> <Smiles>
Cc1cc(C)c(S(=O)(=O)N[C@@H](C)CNc2cccc3c2cnn3-c2ccccc2)c(C)c1

$$$$
CHEMBL3775798
  SciTegic08162514323D

 62 68  0  0  1  0            999 V2000
   -8.4960    2.6490    1.7320 F   0  0
   -7.1880    2.4960    1.5410 C   0  0
   -6.4610    3.4690    0.8140 C   0  0
   -6.5220    1.3650    2.0630 C   0  0
   -5.0680    3.3130    0.6150 C   0  0
   -5.1330    1.2030    1.8520 C   0  0
   -4.3970    4.2440   -0.0700 O   0  0
   -4.3970    2.1760    1.1190 C   0  0
   -3.4840    5.0880    0.6190 C   0  0
   -2.9340    1.9710    0.8570 C   0  0
   -2.1880    4.4730    1.0200 C   0  0
   -1.9120    3.0630    1.1540 C   0  0
   -2.6020    0.7480    0.3500 C   0  0
   -1.1520    5.4100    1.2910 C   0  0
   -0.6150    2.6780    1.6110 C   0  0
   -1.2680    0.3150   -0.1270 C   0  0
    0.1330    4.9960    1.6950 C   0  0
    0.3980    3.6250    1.8590 C   0  0
   -0.4470    1.2290   -0.8440 C   0  0
   -0.8200   -1.0120    0.1350 C   0  0
    0.8180    0.7790   -1.2830 C   0  0
    0.4530   -1.4430   -0.3160 C   0  0
    1.8380    1.5270   -2.0310 N   0  0
    1.2540   -0.5190   -1.0250 C   0  0
    2.8630    0.5590   -2.1740 C   0  0
    2.5880   -0.7030   -1.5940 N   0  0
    3.8980    0.7950   -2.7500 O   0  0
    3.4340   -1.8940   -1.5720 C   0  0  1  0  0  0
    3.7290   -2.4280   -0.1600 C   0  0
    2.8140   -3.0980   -2.3050 C   0  0
    3.6000   -3.8750   -0.2420 N   0  0
    3.5840   -4.2320   -1.6470 C   0  0  1  0  0  0
    4.4840   -4.7380    0.5550 C   0  0
    3.0390   -5.6640   -1.8300 C   0  0
    4.5760   -6.1680   -0.0510 C   0  0
    3.3630   -6.5020   -0.7170 O   0  0
   -6.9690    4.3340    0.4120 H   0  0
   -7.0700    0.6210    2.6210 H   0  0
   -4.6410    0.3300    2.2540 H   0  0
   -3.9790    5.5140    1.4940 H   0  0
   -3.2910    5.9260   -0.0550 H   0  0
   -3.3690   -0.0080    0.2500 H   0  0
   -1.3420    6.4690    1.1880 H   0  0
   -0.3610    1.6470    1.7970 H   0  0
    0.9060    5.7270    1.8810 H   0  0
    1.3770    3.2990    2.1780 H   0  0
   -0.7770    2.2380   -1.0470 H   0  0
   -1.4490   -1.7010    0.6800 H   0  0
    0.8010   -2.4470   -0.1230 H   0  0
    1.7730    2.4790   -2.3380 H   0  0
    4.3710   -1.6480   -2.0510 H   0  0
    4.7270   -2.1500    0.1540 H   0  0
    3.0370   -2.0600    0.5860 H   0  0
    2.9630   -3.0590   -3.3750 H   0  0
    1.7560   -3.1910   -2.1070 H   0  0
    4.6040   -4.2090   -2.0120 H   0  0
    4.0960   -4.7810    1.5720 H   0  0
    5.4810   -4.3010    0.6110 H   0  0
    3.4610   -6.1090   -2.7310 H   0  0
    1.9550   -5.6720   -1.9380 H   0  0
    4.7680   -6.9060    0.7270 H   0  0
    5.3910   -6.2340   -0.7730 H   0  0
  1  2  1  0
  2  3  2  0
  2  4  1  0
  3  5  1  0
  4  6  2  0
  5  7  1  0
  5  8  2  0
  7  9  1  0
  8 10  1  0
  9 11  1  0
 10 12  1  0
 10 13  2  0
 11 14  2  0
 12 15  2  0
 13 16  1  0
 14 17  1  0
 15 18  1  0
 16 19  2  0
 16 20  1  0
 19 21  1  0
 20 22  2  0
 21 23  1  0
 21 24  2  0
 23 25  1  0
 24 26  1  0
 25 27  2  0
 28 26  1  0
 28 29  1  0
 28 30  1  0
 29 31  1  0
 30 32  1  0
 31 33  1  0
 32 34  1  0
 33 35  1  0
 34 36  1  0
  6  8  1  0
 11 12  1  0
 17 18  2  0
 22 24  1  0
 25 26  1  0
 32 31  1  0
 35 36  1  0
  3 37  1  0
  4 38  1  0
  6 39  1  0
  9 40  1  0
  9 41  1  0
 13 42  1  0
 14 43  1  0
 15 44  1  0
 17 45  1  0
 18 46  1  0
 19 47  1  0
 20 48  1  0
 22 49  1  0
 23 50  1  0
 28 51  1  0
 29 52  1  0
 29 53  1  0
 30 54  1  0
 30 55  1  0
 32 56  1  0
 33 57  1  0
 33 58  1  0
 34 59  1  0
 34 60  1  0
 35 61  1  0
 35 62  1  0
M  END
> <Name>
CHEMBL3775798

> <IC50 nM>
25000

> <Molecule_ChEMBL_ID>
CHEMBL3775798

> <Smiles>
O=c1[nH]c2cc(/C=C3\c4ccccc4COc4cc(F)ccc43)ccc2n1[C@@H]1C[C@@H]2COCCN2C1

$$$$
CHEMBL312627
  SciTegic08162514323D

 56 59  0  0  1  0            999 V2000
   -5.3970    6.5820   -0.6970 F   0  0
   -4.9280    5.3380   -0.6190 C   0  0
   -3.7660    4.9790   -1.3200 C   0  0
   -5.5980    4.3850    0.1660 C   0  0
   -3.2700    3.6660   -1.2380 C   0  0
   -5.1060    3.0700    0.2500 C   0  0
   -3.9400    2.7070   -0.4530 C   0  0
   -3.4630    1.4400   -0.3730 N   0  0
   -4.2250    0.3160   -0.4810 N   0  0
   -2.1640    1.0900   -0.1780 C   0  0
   -3.5080   -0.8320   -0.3560 C   0  0
   -2.2380   -0.2930   -0.1580 C   0  0
   -0.9220    1.8670   -0.0120 C   0  0
   -0.9550   -1.0760    0.0940 C   0  0
    0.2580    1.2070   -0.0310 C   0  0
    0.3280   -0.2970   -0.3480 C   0  0  1  0  0  0
    1.5510    1.9470    0.2420 C   0  0
    1.5800   -0.8960    0.3460 C   0  0  1  0  0  0
    0.4690   -0.4280   -1.8710 C   0  0
    2.7380    1.2750   -0.4570 C   0  0
    1.6870   -2.4160    0.1620 C   0  0  1  0  0  0
    2.9000   -0.2050   -0.0700 C   0  0
    2.0620   -2.6720   -1.1740 O   0  0
    2.7320   -3.0490    1.0800 C   0  0
    4.1230   -3.1030    0.4470 C   0  0
    2.7460   -2.4260    2.4760 C   0  0
    2.0140   -4.3980    1.0430 C   0  0
   -3.2480    5.7110   -1.9260 H   0  0
   -6.4920    4.6560    0.7070 H   0  0
   -2.3730    3.4080   -1.7850 H   0  0
   -5.6350    2.3500    0.8570 H   0  0
   -3.8650   -1.8520   -0.4020 H   0  0
   -0.9590    2.9400    0.1230 H   0  0
   -1.0120   -2.0470   -0.4020 H   0  0
   -0.9140   -1.2830    1.1640 H   0  0
    1.4690    2.9810   -0.0940 H   0  0
    1.7230    1.9790    1.3180 H   0  0
    1.4590   -0.7230    1.4160 H   0  0
    1.4940   -0.2560   -2.2010 H   0  0
   -0.1700    0.2930   -2.3810 H   0  0
    0.1760   -1.4240   -2.2010 H   0  0
    3.6600    1.8180   -0.2480 H   0  0
    2.5880    1.3460   -1.5350 H   0  0
    0.7270   -2.8950    0.3420 H   0  0
    3.6130   -0.2910    0.7520 H   0  0
    3.3530   -0.7300   -0.9120 H   0  0
    1.5290   -3.4220   -1.4810 H   0  0
    4.8630   -3.5290    1.1250 H   0  0
    4.4590   -2.1030    0.1700 H   0  0
    4.1090   -3.7110   -0.4570 H   0  0
    3.2810   -3.0470    3.1950 H   0  0
    1.7280   -2.2890    2.8480 H   0  0
    3.2270   -1.4470    2.4570 H   0  0
    2.6050   -5.1640    1.5470 H   0  0
    1.0390   -4.3280    1.5250 H   0  0
    1.8550   -4.7210    0.0150 H   0  0
  1  2  1  0
  2  3  2  0
  2  4  1  0
  3  5  1  0
  4  6  2  0
  5  7  2  0
  7  8  1  0
  8  9  1  0
  8 10  1  0
  9 11  2  0
 10 12  2  0
 10 13  1  0
 12 14  1  0
 13 15  2  0
 14 16  1  0
 15 17  1  0
 16 18  1  0
 16 19  1  0
 17 20  1  0
 18 21  1  0
 18 22  1  0
 21 23  1  0
 21 24  1  0
 24 25  1  0
 24 26  1  0
 24 27  1  0
  6  7  1  0
 11 12  1  0
 15 16  1  0
 20 22  1  0
  3 28  1  0
  4 29  1  0
  5 30  1  0
  6 31  1  0
 11 32  1  0
 13 33  1  0
 14 34  1  0
 14 35  1  0
 17 36  1  0
 17 37  1  0
 18 38  1  0
 19 39  1  0
 19 40  1  0
 19 41  1  0
 20 42  1  0
 20 43  1  0
 21 44  1  0
 22 45  1  0
 22 46  1  0
 23 47  1  0
 25 48  1  0
 25 49  1  0
 25 50  1  0
 26 51  1  0
 26 52  1  0
 26 53  1  0
 27 54  1  0
 27 55  1  0
 27 56  1  0
M  END
> <Name>
CHEMBL312627

> <IC50 nM>
77.3

> <Molecule_ChEMBL_ID>
CHEMBL312627

> <Smiles>
CC(C)(C)[C@H](O)[C@H]1CCCC2=Cc3c(cnn3-c3ccc(F)cc3)C[C@@]21C

$$$$
CHEMBL3233281
  SciTegic08162514323D

 59 61  0  0  1  0            999 V2000
   -4.4020    2.7600    3.8340 F   0  0
   -4.2700    1.9710    2.7710 C   0  0
   -3.0700    1.2700    2.5590 C   0  0
   -5.3300    1.8400    1.8570 C   0  0
   -2.9300    0.4360    1.4360 C   0  0
   -5.1910    1.0080    0.7340 C   0  0
   -3.9920    0.3030    0.5190 C   0  0
   -1.6520   -0.3010    1.2280 C   0  0
   -3.8630   -0.5740   -0.6740 C   0  0
   -1.2910    0.4590   -0.0490 C   0  0
   -1.8950   -1.7890    0.9800 C   0  0
   -0.6640   -0.0450    2.3650 C   0  0
    0.1930    0.3520   -0.4000 C   0  0  2  0  0  0
    0.9200    1.1490    0.5080 O   0  0
    0.3560    0.9510   -1.7970 C   0  0
    0.7190   -1.0800   -0.3070 C   0  0
    0.3750    2.3730   -1.2340 C   0  0
   -0.8530    0.6880   -2.6950 C   0  0
    1.6780    0.5590   -2.4570 C   0  0
    2.2320   -1.1070   -0.2460 C   0  0
    2.9880   -2.3090   -0.2440 N   0  0
    3.1230   -0.0160   -0.1820 C   0  0
    4.3240   -1.9450   -0.1820 C   0  0
    4.3500   -0.5740   -0.1470 C   0  0
    5.5260   -2.7050   -0.1540 C   0  0
    5.6040    0.0700   -0.0760 C   0  0
    6.7620   -1.9940   -0.0840 C   0  0
    6.8070   -0.6030   -0.0450 N   0  0
   -2.2560    1.3710    3.2640 H   0  0
   -6.2540    2.3770    2.0160 H   0  0
   -6.0100    0.9100    0.0370 H   0  0
   -4.7310   -1.2280   -0.7400 H   0  0
   -3.7300    0.0410   -1.5650 H   0  0
   -2.9790   -1.2010   -0.5700 H   0  0
   -1.5960    1.5040    0.0250 H   0  0
   -1.9080    0.1270   -0.8830 H   0  0
   -1.3750   -2.4120    1.7090 H   0  0
   -1.5450   -2.0760   -0.0120 H   0  0
   -2.9570   -2.0210    1.0390 H   0  0
   -1.0820   -0.3120    3.3360 H   0  0
   -0.3830    1.0080    2.4040 H   0  0
    0.2460   -0.6270    2.2250 H   0  0
    1.2990    0.5510    1.1740 H   0  0
    0.3810   -1.6720   -1.1580 H   0  0
    0.3130   -1.5860    0.5680 H   0  0
    1.3570    2.6430   -0.8460 H   0  0
   -0.3460    2.4770   -0.4240 H   0  0
    0.1130    3.0960   -2.0080 H   0  0
   -1.1620   -0.3570   -2.6660 H   0  0
   -0.6250    0.9400   -3.7330 H   0  0
   -1.7030    1.2970   -2.3850 H   0  0
    1.8870   -0.5060   -2.3480 H   0  0
    2.5080    1.1090   -2.0140 H   0  0
    1.6600    0.7870   -3.5240 H   0  0
    2.6290   -3.2340   -0.2830 H   0  0
    2.8690    1.0350   -0.1660 H   0  0
    5.5060   -3.7830   -0.1840 H   0  0
    5.6330    1.1500   -0.0470 H   0  0
    7.6880   -2.5510   -0.0610 H   0  0
  1  2  1  0
  2  3  2  0
  2  4  1  0
  3  5  1  0
  4  6  2  0
  5  7  2  0
  5  8  1  0
  7  9  1  0
  8 10  1  0
  8 11  1  0
  8 12  1  0
 10 13  1  0
 13 14  1  0
 13 15  1  0
 13 16  1  0
 15 17  1  0
 15 18  1  0
 15 19  1  0
 16 20  1  0
 20 21  1  0
 20 22  2  0
 21 23  1  0
 22 24  1  0
 23 25  1  0
 24 26  1  0
 25 27  2  0
 26 28  2  0
  6  7  1  0
 23 24  2  0
 27 28  1  0
  3 29  1  0
  4 30  1  0
  6 31  1  0
  9 32  1  0
  9 33  1  0
  9 34  1  0
 10 35  1  0
 10 36  1  0
 11 37  1  0
 11 38  1  0
 11 39  1  0
 12 40  1  0
 12 41  1  0
 12 42  1  0
 14 43  1  0
 16 44  1  0
 16 45  1  0
 17 46  1  0
 17 47  1  0
 17 48  1  0
 18 49  1  0
 18 50  1  0
 18 51  1  0
 19 52  1  0
 19 53  1  0
 19 54  1  0
 21 55  1  0
 22 56  1  0
 25 57  1  0
 26 58  1  0
 27 59  1  0
M  END
> <Name>
CHEMBL3233281

> <IC50 nM>
2

> <Molecule_ChEMBL_ID>
CHEMBL3233281

> <Smiles>
Cc1ccc(F)cc1C(C)(C)C[C@@](O)(Cc1cc2cnccc2[nH]1)C(C)(C)C

$$$$
CHEMBL4214847
  SciTegic08162514323D

 62 66  0  0  1  0            999 V2000
   -3.6030   -3.1250   -4.1430 F   0  0
   -4.7850   -2.8910   -3.4870 C   0  0
   -5.5060   -4.0550   -3.4140 F   0  0
   -4.5250   -2.3460   -2.1080 C   0  0
   -5.5920   -1.8400   -4.2500 C   0  0
   -4.9340   -1.2560   -1.7830 O   0  0
   -3.8140   -3.1090   -1.2270 N   0  0
   -3.5510   -2.5920    0.1250 C   0  0  2  0  0  0
   -2.3710   -1.6170    0.1190 C   0  0  2  0  0  0
   -3.3630   -3.7360    1.1230 C   0  0
   -1.1850   -2.3130   -0.2360 O   0  0
   -2.1890   -0.9710    1.4430 C   0  0
   -0.0510   -1.6060   -0.3380 C   0  0
   -2.8180    0.2580    1.7190 C   0  0
   -1.3890   -1.5840    2.4240 C   0  0
    1.2010   -2.2810   -0.3670 C   0  0
   -0.1030   -0.1880   -0.4160 C   0  0
   -2.6460    0.8690    2.9730 C   0  0
   -1.2190   -0.9710    3.6780 C   0  0
    2.3970   -1.5250   -0.4770 C   0  0
    1.0900    0.5700   -0.5240 C   0  0
   -1.8460    0.2560    3.9510 C   0  0
    2.3050   -0.1470   -0.5490 C   0  0
    3.6660   -2.1130   -0.5120 C   0  0
    3.6120    0.1370   -0.6350 N   0  0
    4.4260   -0.9590   -0.6170 N   0  0
    4.1210    1.4630   -0.7360 C   0  0
    3.6350    2.4530    0.0530 C   0  0
    5.1900    1.7640   -1.7150 C   0  0
    4.1120    3.7480   -0.0270 N   0  0
    5.6620    3.0230   -1.8010 C   0  0
    5.1100    4.0800   -0.9260 C   0  0
    3.5530    4.7440    0.8380 C   0  0
    5.5330    5.2110   -1.0020 O   0  0
    3.5510    4.4280    2.3200 C   0  0
    4.5180    5.4550    1.7660 C   0  0
   -5.8220   -2.1620   -5.2660 H   0  0
   -5.0390   -0.9020   -4.3150 H   0  0
   -6.5350   -1.6350   -3.7420 H   0  0
   -3.4760   -4.0100   -1.4960 H   0  0
   -4.4490   -2.1080    0.5060 H   0  0
   -2.5590   -0.8540   -0.6370 H   0  0
   -4.1990   -4.4340    1.0680 H   0  0
   -2.4370   -4.2740    0.9240 H   0  0
   -3.3140   -3.3540    2.1420 H   0  0
   -3.4340    0.7360    0.9730 H   0  0
   -0.9040   -2.5270    2.2190 H   0  0
    1.2310   -3.3590   -0.3090 H   0  0
   -1.0580    0.3180   -0.3930 H   0  0
   -3.1290    1.8120    3.1840 H   0  0
   -0.6030   -1.4430    4.4300 H   0  0
    1.0690    1.6480   -0.5820 H   0  0
   -1.7130    0.7270    4.9160 H   0  0
    4.0100   -3.1410   -0.4730 H   0  0
    2.8540    2.2070    0.7620 H   0  0
    5.5920    0.9920   -2.3560 H   0  0
    6.4440    3.2600   -2.5080 H   0  0
    2.7150    5.3090    0.4280 H   0  0
    2.7090    4.7910    2.9080 H   0  0
    3.9650    3.4790    2.6600 H   0  0
    4.3210    6.5040    1.9820 H   0  0
    5.5740    5.1860    1.7360 H   0  0
  1  2  1  0
  2  3  1  0
  2  4  1  0
  2  5  1  0
  4  6  2  0
  4  7  1  0
  7  8  1  0
  8  9  1  0
  8 10  1  0
  9 11  1  0
  9 12  1  0
 11 13  1  0
 12 14  2  0
 12 15  1  0
 13 16  2  0
 13 17  1  0
 14 18  1  0
 15 19  2  0
 16 20  1  0
 17 21  2  0
 18 22  2  0
 20 23  2  0
 20 24  1  0
 23 25  1  0
 24 26  2  0
 25 27  1  0
 27 28  2  0
 27 29  1  0
 28 30  1  0
 29 31  2  0
 30 32  1  0
 30 33  1  0
 32 34  2  0
 33 35  1  0
 33 36  1  0
 19 22  1  0
 21 23  1  0
 25 26  1  0
 31 32  1  0
 35 36  1  0
  5 37  1  0
  5 38  1  0
  5 39  1  0
  7 40  1  0
  8 41  1  0
  9 42  1  0
 10 43  1  0
 10 44  1  0
 10 45  1  0
 14 46  1  0
 15 47  1  0
 16 48  1  0
 17 49  1  0
 18 50  1  0
 19 51  1  0
 21 52  1  0
 22 53  1  0
 24 54  1  0
 28 55  1  0
 29 56  1  0
 31 57  1  0
 33 58  1  0
 35 59  1  0
 35 60  1  0
 36 61  1  0
 36 62  1  0
M  END
> <Name>
CHEMBL4214847

> <IC50 nM>
3.9

> <Molecule_ChEMBL_ID>
CHEMBL4214847

> <Smiles>
C[C@H](NC(=O)C(C)(F)F)[C@H](Oc1ccc2c(cnn2-c2ccc(=O)n(C3CC3)c2)c1)c1ccccc1

$$$$
CHEMBL83110
  SciTegic08162514323D

 57 61  0  0  1  0            999 V2000
    5.3650   -4.4360    3.2150 F   0  0
    4.4380   -3.9100    2.4160 C   0  0
    3.0800   -3.9220    2.7910 C   0  0
    4.8200   -3.3440    1.1880 C   0  0
    2.1130   -3.3630    1.9380 C   0  0
    2.6600   -4.5180    4.0880 C   0  0
    3.8520   -2.7870    0.3360 C   0  0
    2.4980   -2.7950    0.7090 C   0  0
    1.4730   -2.2070   -0.1910 C   0  0  2  0  0  0
    1.8220   -2.4650   -1.5310 O   0  0
    1.3650   -0.6880   -0.0080 C   0  0  2  0  0  0
    0.1130   -0.0900   -0.6990 C   0  0  2  0  0  0
    2.6840    0.0040   -0.4220 C   0  0
    0.0410    1.4160   -0.3850 C   0  0
   -1.1720   -0.8670   -0.2580 C   0  0
    0.2540   -0.2190   -2.2250 C   0  0
    2.5240    1.4840   -0.8080 C   0  0
   -1.1390    2.0760   -0.3650 C   0  0
    1.3360    2.1540   -0.1110 C   0  0
   -2.4530   -0.0840   -0.5120 C   0  0
   -2.3790    1.2990   -0.5310 C   0  0
   -3.7230   -0.6230   -0.7090 C   0  0
   -3.6780    1.6460   -0.7240 N   0  0
   -4.4410    0.5250   -0.8320 N   0  0
   -4.1560    2.9180   -0.8050 C   0  0
   -5.3320    3.2750   -0.1190 C   0  0
   -3.4750    3.8810   -1.5760 C   0  0
   -5.8240    4.5880   -0.2010 C   0  0
   -3.9710    5.1930   -1.6580 C   0  0
   -5.1450    5.5490   -0.9710 C   0  0
   -5.6110    6.7910   -1.0510 F   0  0
    5.8610   -3.3340    0.8950 H   0  0
    1.0700   -3.3690    2.2250 H   0  0
    1.5960   -4.3400    4.2420 H   0  0
    2.9160   -5.5780    4.1000 H   0  0
    3.2010   -4.0350    4.9030 H   0  0
    4.1540   -2.3520   -0.6070 H   0  0
    0.5060   -2.6720    0.0040 H   0  0
    1.7700   -3.4260   -1.6620 H   0  0
    1.2420   -0.5160    1.0630 H   0  0
    3.3970   -0.0840    0.3990 H   0  0
    3.1370   -0.5220   -1.2640 H   0  0
   -1.2270   -1.8380   -0.7560 H   0  0
   -1.1290   -1.0740    0.8130 H   0  0
    1.2770   -0.0470   -2.5530 H   0  0
   -0.3870    0.5020   -2.7320 H   0  0
   -0.0390   -1.2170   -2.5550 H   0  0
    3.4430    2.0270   -0.5990 H   0  0
    2.3730    1.5550   -1.8890 H   0  0
   -1.1740    3.1480   -0.2280 H   0  0
    1.2540    3.1890   -0.4470 H   0  0
    1.5060    2.1850    0.9670 H   0  0
   -4.0800   -1.6450   -0.7540 H   0  0
   -5.8690    2.5510    0.4790 H   0  0
   -2.5700    3.6270   -2.1110 H   0  0
   -6.7270    4.8570    0.3280 H   0  0
   -3.4430    5.9280   -2.2500 H   0  0
  1  2  1  0
  2  3  2  0
  2  4  1  0
  3  5  1  0
  3  6  1  0
  4  7  2  0
  5  8  2  0
  8  9  1  0
  9 10  1  0
  9 11  1  0
 11 12  1  0
 11 13  1  0
 12 14  1  0
 12 15  1  0
 12 16  1  0
 13 17  1  0
 14 18  2  0
 14 19  1  0
 15 20  1  0
 18 21  1  0
 20 22  1  0
 21 23  1  0
 22 24  2  0
 23 25  1  0
 25 26  2  0
 25 27  1  0
 26 28  1  0
 27 29  2  0
 28 30  2  0
 30 31  1  0
  7  8  1  0
 17 19  1  0
 20 21  2  0
 23 24  1  0
 29 30  1  0
  4 32  1  0
  5 33  1  0
  6 34  1  0
  6 35  1  0
  6 36  1  0
  7 37  1  0
  9 38  1  0
 10 39  1  0
 11 40  1  0
 13 41  1  0
 13 42  1  0
 15 43  1  0
 15 44  1  0
 16 45  1  0
 16 46  1  0
 16 47  1  0
 17 48  1  0
 17 49  1  0
 18 50  1  0
 19 51  1  0
 19 52  1  0
 22 53  1  0
 26 54  1  0
 27 55  1  0
 28 56  1  0
 29 57  1  0
M  END
> <Name>
CHEMBL83110

> <IC50 nM>
6.7

> <Molecule_ChEMBL_ID>
CHEMBL83110

> <Smiles>
Cc1cc([C@H](O)[C@H]2CCCC3=Cc4c(cnn4-c4ccc(F)cc4)C[C@@]32C)ccc1F

$$$$
CHEMBL3928010
  SciTegic08162514323D

 72 77  0  0  1  0            999 V2000
    4.6580    4.0570   -0.7540 O   0  0
    3.9860    3.3950    0.0000 C   0  0
    4.0040    3.6490    1.3420 N   0  0
    3.0840    2.2680   -0.3100 C   0  0
    4.7830    4.6620    1.8400 C   0  0
    3.0860    1.1150    0.5020 C   0  0
    2.2150    2.3480   -1.4240 C   0  0
    4.3110    5.5310    2.8540 C   0  0
    6.0840    4.8460    1.3320 C   0  0
    2.1900    0.0450    0.2360 C   0  0
    1.3180    1.2930   -1.6930 C   0  0
    5.0960    6.5350    3.3420 N   0  0
    2.9430    5.3790    3.4280 C   0  0
    6.8770    5.8870    1.8460 C   0  0
    1.2660    0.1470   -0.8500 C   0  0
    2.2310   -1.1580    1.1060 C   0  0
    6.3560    6.7190    2.8540 C   0  0
    0.2190   -0.8980   -1.0700 C   0  0  1  0  0  0
    0.8750   -1.8590    1.1970 C   0  0
   -0.1310   -1.2670   -2.5410 C   0  0  1  0  0  0
    0.3830   -2.1850   -0.2130 C   0  0  1  0  0  0
    0.9300   -1.9880   -3.1410 O   0  0
   -1.4470   -2.0840   -2.5900 C   0  0
   -1.0000   -2.8500   -0.2030 C   0  0  1  0  0  0
   -1.4510   -3.2850   -1.6150 C   0  0  1  0  0  0
   -1.1820   -4.1350    0.6020 C   0  0
   -2.8180   -3.9300   -1.2420 C   0  0  2  0  0  0
   -0.5020   -4.3730   -2.1480 C   0  0
   -2.4450   -4.7710    0.0040 C   0  0
   -3.3050   -4.7600   -2.2830 O   0  0
   -3.8570   -2.9340   -0.9220 C   0  0
   -4.6680   -2.1050   -0.6500 C   0  0
   -5.6190   -1.0760   -0.3120 C   0  0
   -6.7070   -0.8200   -1.1640 C   0  0
   -5.4380   -0.3200    0.8630 C   0  0
   -7.6170    0.2030   -0.8400 C   0  0
   -6.3520    0.6990    1.1800 C   0  0
   -7.4340    0.9690    0.3240 C   0  0
    3.4470    3.0980    1.9670 H   0  0
    3.7740    1.0510    1.3360 H   0  0
    2.2310    3.2190   -2.0640 H   0  0
    6.4830    4.2070    0.5570 H   0  0
    0.6700    1.3930   -2.5510 H   0  0
    2.7970    6.1190    4.2150 H   0  0
    2.2050    5.4590    2.6290 H   0  0
    2.8460    4.3910    3.8750 H   0  0
    7.8770    6.0470    1.4710 H   0  0
    2.9690   -1.8440    0.6930 H   0  0
    2.5760   -0.8980    2.1080 H   0  0
    6.9630    7.5180    3.2480 H   0  0
   -0.6720   -0.3890   -0.6950 H   0  0
    0.9710   -2.7690    1.7890 H   0  0
    0.1520   -1.2230    1.7170 H   0  0
   -0.2770   -0.3850   -3.1600 H   0  0
    1.1110   -2.8550   -0.6680 H   0  0
    0.7030   -2.1030   -4.0760 H   0  0
   -1.6580   -2.4200   -3.6030 H   0  0
   -2.2540   -1.3960   -2.3360 H   0  0
   -1.6870   -2.1210    0.2070 H   0  0
   -0.3320   -4.7910    0.4770 H   0  0
   -1.2830   -3.9370    1.6600 H   0  0
   -0.6130   -5.3100   -1.6050 H   0  0
    0.5370   -4.0570   -2.0590 H   0  0
   -0.6990   -4.5720   -3.2030 H   0  0
   -3.2440   -4.8160    0.7330 H   0  0
   -2.2250   -5.7970   -0.2600 H   0  0
   -4.0140   -5.3030   -1.9080 H   0  0
   -6.8630   -1.4000   -2.0620 H   0  0
   -4.6110   -0.5170    1.5310 H   0  0
   -8.4550    0.4080   -1.4920 H   0  0
   -6.2170    1.2850    2.0780 H   0  0
   -8.1290    1.7600    0.5660 H   0  0
  1  2  2  0
  2  3  1  0
  2  4  1  0
  3  5  1  0
  4  6  2  0
  4  7  1  0
  5  8  2  0
  5  9  1  0
  6 10  1  0
  7 11  2  0
  8 12  1  0
  8 13  1  0
  9 14  2  0
 10 15  2  0
 10 16  1  0
 12 17  2  0
 18 15  1  0
 16 19  1  0
 18 20  1  0
 18 21  1  0
 20 22  1  0
 20 23  1  0
 21 24  1  0
 23 25  1  0
 24 26  1  0
 25 27  1  0
 25 28  1  0
 26 29  1  0
 27 30  1  0
 27 31  1  0
 31 32  3  0
 32 33  1  0
 33 34  2  0
 33 35  1  0
 34 36  1  0
 35 37  2  0
 36 38  2  0
 11 15  1  0
 14 17  1  0
 21 19  1  0
 24 25  1  0
 27 29  1  0
 37 38  1  0
  3 39  1  0
  6 40  1  0
  7 41  1  0
  9 42  1  0
 11 43  1  0
 13 44  1  0
 13 45  1  0
 13 46  1  0
 14 47  1  0
 16 48  1  0
 16 49  1  0
 17 50  1  0
 18 51  1  0
 19 52  1  0
 19 53  1  0
 20 54  1  0
 21 55  1  0
 22 56  1  0
 23 57  1  0
 23 58  1  0
 24 59  1  0
 26 60  1  0
 26 61  1  0
 28 62  1  0
 28 63  1  0
 28 64  1  0
 29 65  1  0
 29 66  1  0
 30 67  1  0
 34 68  1  0
 35 69  1  0
 36 70  1  0
 37 71  1  0
 38 72  1  0
M  END
> <Name>
CHEMBL3928010

> <IC50 nM>
558

> <Molecule_ChEMBL_ID>
CHEMBL3928010

> <Smiles>
Cc1ncccc1NC(=O)c1ccc2c(c1)CC[C@@H]1[C@@H]2[C@@H](O)C[C@@]2(C)[C@H]1CC[C@@]2(O)C#Cc1ccccc1

$$$$
CHEMBL3233277
  SciTegic08162514323D

 60 62  0  0  1  0            999 V2000
    2.2130   -4.3810   -0.1430 F   0  0
    1.3030   -3.7150    0.5630 C   0  0
    0.3710   -2.8890   -0.0900 C   0  0
    1.2740   -3.8340    1.9630 C   0  0
   -0.5900   -2.1820    0.6560 C   0  0
    0.3130   -3.1310    2.7090 C   0  0
   -0.6210   -2.3030    2.0610 C   0  0
   -1.5700   -1.3110   -0.0450 C   0  0
   -1.5170   -1.6460    2.7700 O   0  0
   -0.7710   -0.0290    0.1930 C   0  0
   -2.9240   -1.3050    0.6660 C   0  0
   -1.6830   -1.6700   -1.5270 C   0  0
   -1.7110   -2.0350    4.1210 C   0  0
   -1.2830    1.1470   -0.6410 C   0  0  1  0  0  0
   -2.6800    1.0200   -0.7730 O   0  0
   -0.9920    2.4120    0.1680 C   0  0
   -0.6720    1.1880   -2.0410 C   0  0
   -2.1660    2.1370    1.1070 C   0  0
   -1.1780    3.6900   -0.6500 C   0  0
    0.3600    2.3590    0.8810 C   0  0
    0.8420    1.1600   -1.9800 C   0  0
    1.5980   -0.0410   -1.9790 N   0  0
    1.7310    2.2520   -1.9160 C   0  0
    2.9340    0.3220   -1.9160 C   0  0
    2.9590    1.6930   -1.8790 C   0  0
    4.1350   -0.4370   -1.8870 C   0  0
    4.2130    2.3380   -1.8110 C   0  0
    5.3710    0.2730   -1.8160 C   0  0
    5.4160    1.6640   -1.7790 N   0  0
    0.3950   -2.7970   -1.1660 H   0  0
    1.9860   -4.4690    2.4690 H   0  0
    0.2930   -3.2250    3.7850 H   0  0
    0.2890   -0.1970    0.0140 H   0  0
   -0.7600    0.2270    1.2520 H   0  0
   -3.7250   -0.9610    0.0100 H   0  0
   -2.9000   -0.6450    1.5330 H   0  0
   -3.1840   -2.3050    1.0120 H   0  0
   -1.9240   -2.7230   -1.6720 H   0  0
   -0.7440   -1.4690   -2.0450 H   0  0
   -2.4630   -1.0800   -2.0080 H   0  0
   -1.8670   -3.1130    4.1490 H   0  0
   -0.8770   -1.6540    4.7090 H   0  0
   -2.6210   -1.5570    4.4860 H   0  0
   -2.9430    1.5410   -1.5470 H   0  0
   -0.9980    2.0760   -2.5780 H   0  0
   -1.0250    0.3480   -2.6410 H   0  0
   -2.2910    1.0720    1.3010 H   0  0
   -3.0980    2.5120    0.6820 H   0  0
   -2.0160    2.6350    2.0660 H   0  0
   -0.2990    3.9180   -1.2540 H   0  0
   -1.3650    4.5430    0.0020 H   0  0
   -2.0290    3.5960   -1.3260 H   0  0
    0.7890    3.3540    1.0120 H   0  0
    1.0720    1.7620    0.3130 H   0  0
    0.2580    1.9080    1.8670 H   0  0
    1.2380   -0.9670   -2.0160 H   0  0
    1.4790    3.3030   -1.9000 H   0  0
    4.1130   -1.5160   -1.9180 H   0  0
    4.2420    3.4180   -1.7810 H   0  0
    6.2970   -0.2830   -1.7930 H   0  0
  1  2  1  0
  2  3  2  0
  2  4  1  0
  3  5  1  0
  4  6  2  0
  5  7  2  0
  5  8  1  0
  7  9  1  0
  8 10  1  0
  8 11  1  0
  8 12  1  0
  9 13  1  0
 10 14  1  0
 14 15  1  0
 14 16  1  0
 14 17  1  0
 16 18  1  0
 16 19  1  0
 16 20  1  0
 17 21  1  0
 21 22  1  0
 21 23  2  0
 22 24  1  0
 23 25  1  0
 24 26  1  0
 25 27  1  0
 26 28  2  0
 27 29  2  0
  6  7  1  0
 24 25  2  0
 28 29  1  0
  3 30  1  0
  4 31  1  0
  6 32  1  0
 10 33  1  0
 10 34  1  0
 11 35  1  0
 11 36  1  0
 11 37  1  0
 12 38  1  0
 12 39  1  0
 12 40  1  0
 13 41  1  0
 13 42  1  0
 13 43  1  0
 15 44  1  0
 17 45  1  0
 17 46  1  0
 18 47  1  0
 18 48  1  0
 18 49  1  0
 19 50  1  0
 19 51  1  0
 19 52  1  0
 20 53  1  0
 20 54  1  0
 20 55  1  0
 22 56  1  0
 23 57  1  0
 26 58  1  0
 27 59  1  0
 28 60  1  0
M  END
> <Name>
CHEMBL3233277

> <IC50 nM>
9

> <Molecule_ChEMBL_ID>
CHEMBL3233277

> <Smiles>
COc1ccc(F)cc1C(C)(C)CC(O)(Cc1cc2cnccc2[nH]1)C(C)(C)C

$$$$
CHEMBL3261413
  SciTegic08162514323D

 60 63  0  0  1  0            999 V2000
    4.2810   10.3970   -0.1840 Cl  0  0
    3.6720    8.7990   -0.0590 C   0  0
    2.6430    8.5060    0.8530 C   0  0
    4.2010    7.7780   -0.8690 C   0  0
    2.1410    7.1980    0.9550 C   0  0
    3.7010    6.4670   -0.7680 C   0  0
    2.6680    6.1740    0.1440 C   0  0
    2.1840    4.9080    0.2400 N   0  0
    2.9470    3.7660    0.2640 N   0  0
    0.8790    4.5410    0.3320 C   0  0
    2.2310    2.5940    0.3670 C   0  0
    0.9550    3.1560    0.4060 C   0  0
   -0.3400    5.2620    0.3570 C   0  0
   -0.2790    2.4300    0.5140 C   0  0
   -1.5470    4.5310    0.4650 C   0  0
   -0.1680    1.0880    0.5840 N   0  0
   -1.5210    3.1150    0.5430 C   0  0
   -1.3730    0.2560    0.6990 C   0  0
   -1.0100   -1.2280    0.7640 C   0  0  1  0  0  0
   -2.1450   -2.0100    1.2260 N   0  0
   -0.4960   -1.7670   -0.5700 C   0  0
   -1.8670   -3.6700    1.6660 S   0  0
   -0.7810   -3.6520    2.6310 O   0  0
   -3.1210   -4.1500    2.2230 O   0  0
   -1.4180   -4.7090    0.3610 C   0  0
   -2.2320   -4.7930   -0.7830 C   0  0
   -0.2360   -5.4710    0.4410 C   0  0
   -1.8650   -5.6390   -1.8460 C   0  0
   -3.4820   -3.9920   -0.8770 C   0  0
    0.1270   -6.3140   -0.6210 C   0  0
    0.6290   -5.3870    1.6480 C   0  0
   -0.6860   -6.3980   -1.7660 C   0  0
   -0.2990   -7.2930   -2.8890 C   0  0
    2.2290    9.2800    1.4840 H   0  0
    4.9920    7.9870   -1.5740 H   0  0
    1.3480    6.9920    1.6620 H   0  0
    4.1190    5.6960   -1.3990 H   0  0
    2.6060    1.5780    0.4040 H   0  0
   -0.3520    6.3400    0.2970 H   0  0
   -2.4920    5.0530    0.4860 H   0  0
    0.7360    0.6600    0.5570 H   0  0
   -2.4510    2.5700    0.6250 H   0  0
   -1.9320    0.5550    1.5860 H   0  0
   -2.0290    0.4550   -0.1490 H   0  0
   -0.2870   -1.4140    1.5590 H   0  0
   -2.8830   -1.9630    0.5100 H   0  0
   -0.0920   -2.7730   -0.4490 H   0  0
   -1.2970   -1.7930   -1.3110 H   0  0
    0.2990   -1.1350   -0.9610 H   0  0
   -2.4920   -5.7030   -2.7250 H   0  0
   -3.9820   -3.8280    0.0780 H   0  0
   -4.1860   -4.4920   -1.5410 H   0  0
   -3.2560   -3.0160   -1.3050 H   0  0
    1.0350   -6.9000   -0.5590 H   0  0
    0.1190   -5.6190    2.5840 H   0  0
    1.0370   -4.3790    1.7320 H   0  0
    1.4650   -6.0780    1.5430 H   0  0
    0.6250   -7.8460   -2.7230 H   0  0
   -0.1780   -6.7030   -3.7970 H   0  0
   -1.0940   -8.0180   -3.0670 H   0  0
  1  2  1  0
  2  3  2  0
  2  4  1  0
  3  5  1  0
  4  6  2  0
  5  7  2  0
  7  8  1  0
  8  9  1  0
  8 10  1  0
  9 11  2  0
 10 12  1  0
 10 13  2  0
 12 14  2  0
 13 15  1  0
 14 16  1  0
 14 17  1  0
 16 18  1  0
 18 19  1  0
 19 20  1  0
 19 21  1  0
 20 22  1  0
 22 23  2  0
 22 24  2  0
 22 25  1  0
 25 26  2  0
 25 27  1  0
 26 28  1  0
 26 29  1  0
 27 30  2  0
 27 31  1  0
 28 32  2  0
 32 33  1  0
  6  7  1  0
 11 12  1  0
 15 17  2  0
 30 32  1  0
  3 34  1  0
  4 35  1  0
  5 36  1  0
  6 37  1  0
 11 38  1  0
 13 39  1  0
 15 40  1  0
 16 41  1  0
 17 42  1  0
 18 43  1  0
 18 44  1  0
 19 45  1  0
 20 46  1  0
 21 47  1  0
 21 48  1  0
 21 49  1  0
 28 50  1  0
 29 51  1  0
 29 52  1  0
 29 53  1  0
 30 54  1  0
 31 55  1  0
 31 56  1  0
 31 57  1  0
 33 58  1  0
 33 59  1  0
 33 60  1  0
M  END
> <Name>
CHEMBL3261413

> <IC50 nM>
13

> <Molecule_ChEMBL_ID>
CHEMBL3261413

> <Smiles>
Cc1cc(C)c(S(=O)(=O)N[C@@H](C)CNc2cccc3c2cnn3-c2ccc(Cl)cc2)c(C)c1

$$$$
CHEMBL549725
  SciTegic08162514323D

 40 40  0  0  1  0            999 V2000
   -4.5390   -1.2890   -0.5450 F   0  0
   -3.7300   -0.7810    0.4390 C   0  0
   -4.5020   -0.2520    1.4390 F   0  0
   -2.9470   -1.7850    0.9490 F   0  0
   -2.8610    0.2810   -0.1330 C   0  0
   -3.4100    1.4490   -0.7310 C   0  0
   -1.4610    0.1330   -0.0840 C   0  0
   -4.8360    1.6090   -0.7870 C   0  0
   -2.5640    2.4360   -1.2620 C   0  0
   -0.6130    1.1230   -0.6170 C   0  0
   -5.9900    1.7420   -0.8320 N   0  0
   -1.1700    2.2810   -1.2090 C   0  0
    0.7440    0.9650   -0.5630 N   0  0
    1.3810    0.2680    0.5620 C   0  0  2  0  0  0
    1.5900    1.4980   -1.6430 C   0  0
    1.4530   -1.2170    0.3260 C   0  0
    0.6930    0.6170    1.8830 C   0  0
    1.3110    0.7790   -2.9630 C   0  0
    0.8830   -1.7250   -0.6100 O   0  0
    2.1760   -1.9840    1.1950 N   0  0
    1.5450   -0.5630   -2.8110 F   0  0
    2.1330    1.2810   -3.9380 F   0  0
    0.0020    0.9770   -3.3230 F   0  0
    2.8380   -1.4020    2.3710 C   0  0
    2.3010   -3.4280    0.9490 C   0  0
   -1.0470   -0.7620    0.3730 H   0  0
   -2.9710    3.3200   -1.7150 H   0  0
   -0.5370    3.0430   -1.6190 H   0  0
    2.4380    0.5350    0.5970 H   0  0
    2.6370    1.3930   -1.3620 H   0  0
    1.4120    2.5680   -1.7400 H   0  0
   -0.0250   -0.1560    2.1580 H   0  0
    1.4260    0.7230    2.6830 H   0  0
    0.1520    1.5590    1.7990 H   0  0
    3.3580   -0.4630    2.1850 H   0  0
    3.5650   -2.1130    2.7620 H   0  0
    2.0940   -1.2250    3.1480 H   0  0
    1.3670   -3.9320    0.6970 H   0  0
    2.7070   -3.9100    1.8400 H   0  0
    3.0000   -3.5940    0.1310 H   0  0
  1  2  1  0
  2  3  1  0
  2  4  1  0
  2  5  1  0
  5  6  2  0
  5  7  1  0
  6  8  1  0
  6  9  1  0
  7 10  2  0
  8 11  3  0
  9 12  2  0
 10 13  1  0
 13 14  1  0
 13 15  1  0
 14 16  1  0
 14 17  1  0
 15 18  1  0
 16 19  2  0
 16 20  1  0
 18 21  1  0
 18 22  1  0
 18 23  1  0
 20 24  1  0
 20 25  1  0
 10 12  1  0
  7 26  1  0
  9 27  1  0
 12 28  1  0
 14 29  1  0
 15 30  1  0
 15 31  1  0
 17 32  1  0
 17 33  1  0
 17 34  1  0
 24 35  1  0
 24 36  1  0
 24 37  1  0
 25 38  1  0
 25 39  1  0
 25 40  1  0
M  END
> <Name>
CHEMBL549725

> <IC50 nM>
10000

> <Molecule_ChEMBL_ID>
CHEMBL549725

> <Smiles>
CC(C(=O)N(C)C)N(CC(F)(F)F)c1ccc(C#N)c(C(F)(F)F)c1

$$$$
CHEMBL3261405
  SciTegic08162514323D

 55 58  0  0  1  0            999 V2000
    0.2660   -1.9840    0.6430 S   0  0
    0.8440   -2.7580   -0.4410 O   0  0
    1.0140   -2.0860    1.8850 O   0  0
    0.3730   -0.3160    0.1540 N   0  0
   -1.3220   -2.5570    0.9240 C   0  0
    1.6950    0.2660    0.0060 C   0  0  2  0  0  0
   -1.8830   -2.8180    2.1860 C   0  0
   -2.2770   -2.8400   -0.0720 C   0  0
    1.6070    1.7910   -0.0290 C   0  0
    2.4000   -0.3140   -1.2210 C   0  0
   -3.1350   -3.2440    1.9220 N   0  0
   -1.2870   -2.6820    3.5710 C   0  0
   -3.3770   -3.2600    0.6020 N   0  0
   -2.1520   -2.7170   -1.5780 C   0  0
    2.9160    2.3420   -0.0270 O   0  0
   -4.5550   -3.6450    0.0430 C   0  0
    3.0390    3.6760   -0.0920 C   0  0
   -5.2440   -2.7730   -0.8220 C   0  0
   -5.0900   -4.9160    0.3280 C   0  0
    4.3170    4.2950   -0.1480 C   0  0
    1.8730    4.4770   -0.1010 C   0  0
   -6.4630   -3.1720   -1.3980 C   0  0
   -6.3090   -5.3130   -0.2500 C   0  0
    4.4120    5.7210   -0.2190 C   0  0
    5.5120    3.5220   -0.1370 C   0  0
    1.9690    5.8870   -0.1700 C   0  0
   -6.9940   -4.4410   -1.1130 C   0  0
    5.6950    6.3280   -0.2770 C   0  0
    3.2360    6.5120   -0.2280 C   0  0
    6.7620    4.1860   -0.1950 C   0  0
    6.8440    5.5630   -0.2650 N   0  0
   -0.1390   -0.1840   -0.7280 H   0  0
    2.1800   -0.0700    0.9220 H   0  0
    1.0780    2.1680    0.8460 H   0  0
    1.0980    2.1270   -0.9330 H   0  0
    3.3440    0.2010   -1.4020 H   0  0
    2.5960   -1.3770   -1.0880 H   0  0
    1.7830   -0.1970   -2.1110 H   0  0
   -2.0200   -2.6970    4.3770 H   0  0
   -0.7380   -1.7420    3.6370 H   0  0
   -0.5820   -3.4940    3.7440 H   0  0
   -1.1500   -2.4710   -1.9280 H   0  0
   -2.8300   -1.9410   -1.9370 H   0  0
   -2.4470   -3.6560   -2.0450 H   0  0
   -4.8520   -1.7930   -1.0550 H   0  0
   -4.5780   -5.6000    0.9900 H   0  0
    0.9000    4.0080   -0.0580 H   0  0
   -6.9900   -2.5040   -2.0620 H   0  0
   -6.7190   -6.2870   -0.0310 H   0  0
    5.4840    2.4430   -0.0840 H   0  0
    1.0720    6.4860   -0.1760 H   0  0
   -7.9300   -4.7460   -1.5570 H   0  0
    5.7910    7.4020   -0.3320 H   0  0
    3.2910    7.5920   -0.2810 H   0  0
    7.6700    3.6040   -0.1870 H   0  0
  1  2  2  0
  1  3  2  0
  1  4  1  0
  1  5  1  0
  4  6  1  0
  5  7  1  0
  5  8  2  0
  6  9  1  0
  6 10  1  0
  7 11  2  0
  7 12  1  0
  8 13  1  0
  8 14  1  0
  9 15  1  0
 13 16  1  0
 15 17  1  0
 16 18  2  0
 16 19  1  0
 17 20  2  0
 17 21  1  0
 18 22  1  0
 19 23  2  0
 20 24  1  0
 20 25  1  0
 21 26  2  0
 22 27  2  0
 24 28  1  0
 24 29  2  0
 25 30  2  0
 28 31  2  0
 11 13  1  0
 23 27  1  0
 26 29  1  0
 30 31  1  0
  4 32  1  0
  6 33  1  0
  9 34  1  0
  9 35  1  0
 10 36  1  0
 10 37  1  0
 10 38  1  0
 12 39  1  0
 12 40  1  0
 12 41  1  0
 14 42  1  0
 14 43  1  0
 14 44  1  0
 18 45  1  0
 19 46  1  0
 21 47  1  0
 22 48  1  0
 23 49  1  0
 25 50  1  0
 26 51  1  0
 27 52  1  0
 28 53  1  0
 29 54  1  0
 30 55  1  0
M  END
> <Name>
CHEMBL3261405

> <IC50 nM>
97

> <Molecule_ChEMBL_ID>
CHEMBL3261405

> <Smiles>
Cc1nn(-c2ccccc2)c(C)c1S(=O)(=O)N[C@@H](C)COc1cccc2cnccc12

$$$$
CHEMBL3233275
  SciTegic08162514323D

 58 61  0  0  1  0            999 V2000
    1.5640   -4.9670    0.2280 F   0  0
    0.7950   -4.0760    0.8480 C   0  0
    0.0200   -3.1740    0.1000 C   0  0
    0.7580   -4.0350    2.2520 C   0  0
   -0.7930   -2.2300    0.7560 C   0  0
   -0.0530   -3.0940    2.9080 C   0  0
   -0.8320   -2.1890    2.1640 C   0  0
   -1.6110   -1.2810   -0.0450 C   0  0
   -1.5900   -1.3100    2.7890 O   0  0
   -0.6580   -0.1030    0.1680 C   0  0
   -2.9840   -1.0510    0.5840 C   0  0
   -1.6970   -1.7110   -1.5100 C   0  0
   -1.6540   -1.3750    4.2050 C   0  0
   -1.0270    1.1150   -0.6780 C   0  0  1  0  0  0
   -2.4300    1.1520   -0.8110 O   0  0
   -0.5800    2.3910    0.0290 C   0  0
   -0.4140    1.0680   -2.0780 C   0  0
   -1.3850    2.7210    1.3050 C   0  0
   -1.1040    3.6900   -0.6190 C   0  0
    1.0940    0.9550   -2.0140 C   0  0
   -1.9490    3.9860    0.6330 C   0  0
    1.9550    2.0800   -1.9380 N   0  0
    1.8830   -0.2130   -2.0160 C   0  0
    3.2460    1.5860   -1.8930 C   0  0
    3.1620    0.2170   -1.9420 C   0  0
    4.5220    2.1820   -1.8130 C   0  0
    4.3340   -0.5900   -1.9140 C   0  0
    5.6970    1.4610   -1.7790 N   0  0
    5.5980    0.0740   -1.8320 C   0  0
    0.0490   -3.2050   -0.9810 H   0  0
    1.3540   -4.7270    2.8320 H   0  0
   -0.0780   -3.0660    3.9860 H   0  0
    0.3730   -0.4040   -0.0180 H   0  0
   -0.6050    0.1620    1.2250 H   0  0
   -3.7340   -0.7870   -0.1620 H   0  0
   -2.9430   -0.2420    1.3140 H   0  0
   -3.3280   -1.9470    1.0980 H   0  0
   -2.0550   -2.7340   -1.6130 H   0  0
   -0.7190   -1.6480   -1.9880 H   0  0
   -2.3790   -1.0620   -2.0630 H   0  0
   -2.0510   -2.3500    4.4840 H   0  0
   -0.6720   -1.1210    4.6040 H   0  0
   -2.3590   -0.6170    4.5490 H   0  0
   -2.6250    1.2070   -1.7600 H   0  0
    0.4980    2.4040    0.1950 H   0  0
   -0.6880    1.9550   -2.6490 H   0  0
   -0.8160    0.2310   -2.6470 H   0  0
   -2.1330    1.9850    1.6020 H   0  0
   -0.7810    2.9040    2.1950 H   0  0
   -1.6720    3.5670   -1.5410 H   0  0
   -0.3360    4.4340   -0.8440 H   0  0
   -1.7190    4.9240    1.1390 H   0  0
   -3.0270    3.9850    0.4750 H   0  0
    1.6840    3.0370   -1.9200 H   0  0
    1.5330   -1.2340   -2.0650 H   0  0
    4.5860    3.2580   -1.7720 H   0  0
    4.2790   -1.6680   -1.9550 H   0  0
    6.5000   -0.5190   -1.8090 H   0  0
  1  2  1  0
  2  3  2  0
  2  4  1  0
  3  5  1  0
  4  6  2  0
  5  7  2  0
  5  8  1  0
  7  9  1  0
  8 10  1  0
  8 11  1  0
  8 12  1  0
  9 13  1  0
 10 14  1  0
 14 15  1  0
 14 16  1  0
 14 17  1  0
 16 18  1  0
 16 19  1  0
 17 20  1  0
 18 21  1  0
 20 22  1  0
 20 23  2  0
 22 24  1  0
 23 25  1  0
 24 26  1  0
 25 27  1  0
 26 28  2  0
 27 29  2  0
  6  7  1  0
 19 21  1  0
 24 25  2  0
 28 29  1  0
  3 30  1  0
  4 31  1  0
  6 32  1  0
 10 33  1  0
 10 34  1  0
 11 35  1  0
 11 36  1  0
 11 37  1  0
 12 38  1  0
 12 39  1  0
 12 40  1  0
 13 41  1  0
 13 42  1  0
 13 43  1  0
 15 44  1  0
 16 45  1  0
 17 46  1  0
 17 47  1  0
 18 48  1  0
 18 49  1  0
 19 50  1  0
 19 51  1  0
 21 52  1  0
 21 53  1  0
 22 54  1  0
 23 55  1  0
 26 56  1  0
 27 57  1  0
 29 58  1  0
M  END
> <Name>
CHEMBL3233275

> <IC50 nM>
260

> <Molecule_ChEMBL_ID>
CHEMBL3233275

> <Smiles>
COc1ccc(F)cc1C(C)(C)CC(O)(Cc1cc2ccncc2[nH]1)C1CCC1

$$$$
CHEMBL1215197
  SciTegic08162514323D

 55 58  0  0  1  0            999 V2000
   -5.0820    3.3810   -2.4080 Cl  0  0
   -4.5410    2.6780   -0.9300 C   0  0
   -5.3340    2.6720    0.2420 C   0  0
   -3.2600    2.0900   -0.8930 C   0  0
   -6.6510    3.2640    0.2560 C   0  0
   -4.8520    2.0880    1.4280 C   0  0
   -2.7760    1.5040    0.2930 C   0  0
   -7.7090    3.7400    0.2680 N   0  0
   -3.5740    1.5040    1.4510 C   0  0
   -1.5290    0.9350    0.3180 N   0  0
   -0.5800    1.3940   -0.2950 N   0  0
   -1.2030   -0.2680    1.0800 C   0  0  1  0  0  0
    0.5120    0.7320   -0.1480 C   0  0
   -2.0140   -1.4900    0.6520 C   0  0
    0.2730   -0.4450    0.7640 C   0  0
    1.8280    1.0590   -0.7750 C   0  0
   -3.4470   -1.4430    1.1720 C   0  0
   -1.4980   -2.7810    1.2830 C   0  0
    2.9470    0.2460   -0.5270 C   0  0
    1.9490    2.1800   -1.6150 C   0  0
   -3.9060   -2.8710    0.9080 C   0  0
   -2.7010   -3.7270    1.2930 C   0  0
    4.1890    0.5490   -1.1150 C   0  0
    3.1870    2.4860   -2.2050 C   0  0
    5.2300   -0.2230   -0.8730 O   0  0
    4.3070    1.6720   -1.9570 C   0  0
    5.0490   -1.3420   -0.0180 C   0  0
    5.6190    2.0100   -2.5880 C   0  0
    6.3710   -2.0960    0.1270 C   0  0
    5.7320    2.9710   -3.3130 O   0  0
    6.6190    1.1820   -2.2950 O   0  0
   -2.6490    2.0920   -1.7850 H   0  0
   -5.4510    2.0780    2.3280 H   0  0
   -3.2210    1.0590    2.3710 H   0  0
   -1.3460   -0.0760    2.1350 H   0  0
   -2.0140   -1.5760   -0.4240 H   0  0
    0.4940   -1.3730    0.2540 H   0  0
    0.8910   -0.3770    1.6480 H   0  0
   -4.0530   -0.7150    0.6520 H   0  0
   -3.4750   -1.2170    2.2310 H   0  0
   -1.1680   -2.6040    2.2970 H   0  0
   -0.6620   -3.1940    0.7340 H   0  0
    2.8610   -0.6170    0.1170 H   0  0
    1.0940    2.8100   -1.8130 H   0  0
   -4.7930   -3.1270    1.4690 H   0  0
   -4.1330   -2.9980   -0.1430 H   0  0
   -2.8280   -4.1560    2.2770 H   0  0
   -2.5740   -4.5450    0.5980 H   0  0
    3.2710    3.3500   -2.8480 H   0  0
    4.7030   -0.9790    0.9510 H   0  0
    4.2850   -1.9850   -0.4550 H   0  0
    6.2560   -2.9530    0.7870 H   0  0
    6.7270   -2.4400   -0.8440 H   0  0
    7.1390   -1.4470    0.5530 H   0  0
    7.4920    1.3440   -2.6720 H   0  0
  1  2  1  0
  2  3  2  0
  2  4  1  0
  3  5  1  0
  3  6  1  0
  4  7  2  0
  5  8  3  0
  6  9  2  0
  7 10  1  0
 10 11  1  0
 10 12  1  0
 11 13  2  0
 12 14  1  0
 12 15  1  0
 13 16  1  0
 14 17  1  0
 14 18  1  0
 16 19  2  0
 16 20  1  0
 17 21  1  0
 18 22  1  0
 19 23  1  0
 20 24  2  0
 23 25  1  0
 23 26  2  0
 25 27  1  0
 26 28  1  0
 27 29  1  0
 28 30  2  0
 28 31  1  0
  7  9  1  0
 13 15  1  0
 21 22  1  0
 24 26  1  0
  4 32  1  0
  6 33  1  0
  9 34  1  0
 12 35  1  0
 14 36  1  0
 15 37  1  0
 15 38  1  0
 17 39  1  0
 17 40  1  0
 18 41  1  0
 18 42  1  0
 19 43  1  0
 20 44  1  0
 21 45  1  0
 21 46  1  0
 22 47  1  0
 22 48  1  0
 24 49  1  0
 27 50  1  0
 27 51  1  0
 29 52  1  0
 29 53  1  0
 29 54  1  0
 31 55  1  0
M  END
> <Name>
CHEMBL1215197

> <IC50 nM>
10000

> <Molecule_ChEMBL_ID>
CHEMBL1215197

> <Smiles>
CCOc1cc(C2=NN(c3ccc(C#N)c(Cl)c3)[C@@H](C3CCCC3)C2)ccc1C(=O)O

$$$$
CHEMBL396669
  SciTegic08162514323D

 51 52  0  0  1  0            999 V2000
    1.2890   -0.6540   -5.6430 F   0  0
    1.5550    0.0880   -4.5700 C   0  0
    1.1930   -0.3690   -3.2910 C   0  0
    2.1990    1.3280   -4.7170 C   0  0
    1.4750    0.4140   -2.1580 C   0  0
    2.4810    2.1110   -3.5840 C   0  0
    2.1190    1.6580   -2.3030 C   0  0
    1.0860   -0.0780   -0.8080 C   0  0
    2.3890    2.4020   -1.2460 O   0  0
   -0.1450    0.8220   -0.7090 C   0  0
    2.1480    0.2560    0.2400 C   0  0
    0.7300   -1.5650   -0.8340 C   0  0
    3.1660    3.5740   -1.4370 C   0  0
   -1.0660    0.4350    0.4490 C   0  0  2  0  0  0
   -1.7400   -0.7520    0.1000 O   0  0
   -2.1020    1.5550    0.5740 C   0  0
   -0.3050    0.1890    1.7500 C   0  0
   -3.2270    1.0700    1.1900 F   0  0
   -2.4280    2.0160   -0.6760 F   0  0
   -1.5780    2.5800    1.3190 F   0  0
   -1.2320    0.0430    2.9570 C   0  0
   -1.9280   -1.2700    2.9570 C   0  0
   -3.3340   -1.3220    2.9570 C   0  0
   -1.1820   -2.4630    2.9570 C   0  0
   -3.9920   -2.5650    2.9570 C   0  0
   -1.8400   -3.7050    2.9570 C   0  0
   -3.2440   -3.7560    2.9570 C   0  0
    0.6970   -1.3240   -3.1800 H   0  0
    2.4790    1.6840   -5.6970 H   0  0
    2.9750    3.0640   -3.6990 H   0  0
   -0.6930    0.8300   -1.6520 H   0  0
    0.1480    1.8690   -0.6370 H   0  0
    3.1480    0.2850   -0.1890 H   0  0
    2.1480   -0.4840    1.0390 H   0  0
    1.9510    1.2300    0.6900 H   0  0
    1.5140   -2.1620   -1.3010 H   0  0
   -0.1930   -1.7310   -1.3890 H   0  0
    0.5840   -1.9430    0.1780 H   0  0
    4.1350    3.2790   -1.8420 H   0  0
    2.5860    4.2730   -2.0390 H   0  0
    3.3360    4.0330   -0.4630 H   0  0
   -1.3280   -1.4730    0.6000 H   0  0
    0.4300    0.9750    1.9220 H   0  0
    0.3460   -0.6820    1.6580 H   0  0
   -1.9710    0.8460    2.9770 H   0  0
   -0.6760    0.1600    3.8890 H   0  0
   -3.9140   -0.4100    2.9570 H   0  0
   -0.1020   -2.4300    2.9570 H   0  0
   -5.0700   -2.6040    2.9570 H   0  0
   -1.2680   -4.6190    2.9570 H   0  0
   -3.7500   -4.7090    2.9570 H   0  0
  1  2  1  0
  2  3  2  0
  2  4  1  0
  3  5  1  0
  4  6  2  0
  5  7  2  0
  5  8  1  0
  7  9  1  0
  8 10  1  0
  8 11  1  0
  8 12  1  0
  9 13  1  0
 10 14  1  0
 14 15  1  0
 14 16  1  0
 14 17  1  0
 16 18  1  0
 16 19  1  0
 16 20  1  0
 17 21  1  0
 21 22  1  0
 22 23  2  0
 22 24  1  0
 23 25  1  0
 24 26  2  0
 25 27  2  0
  6  7  1  0
 26 27  1  0
  3 28  1  0
  4 29  1  0
  6 30  1  0
 10 31  1  0
 10 32  1  0
 11 33  1  0
 11 34  1  0
 11 35  1  0
 12 36  1  0
 12 37  1  0
 12 38  1  0
 13 39  1  0
 13 40  1  0
 13 41  1  0
 15 42  1  0
 17 43  1  0
 17 44  1  0
 21 45  1  0
 21 46  1  0
 23 47  1  0
 24 48  1  0
 25 49  1  0
 26 50  1  0
 27 51  1  0
M  END
> <Name>
CHEMBL396669

> <IC50 nM>
1300

> <Molecule_ChEMBL_ID>
CHEMBL396669

> <Smiles>
COc1ccc(F)cc1C(C)(C)CC(O)(CCc1ccccc1)C(F)(F)F

$$$$
CHEMBL236747
  SciTegic08162514323D

 51 52  0  0  1  0            999 V2000
    1.6520    2.3050   -5.0250 F   0  0
    1.5530    2.5390   -3.7190 C   0  0
    0.8100    1.6680   -2.9020 C   0  0
    2.1910    3.6560   -3.1540 C   0  0
    0.7050    1.9140   -1.5210 C   0  0
    2.0840    3.9030   -1.7730 C   0  0
    1.3440    3.0350   -0.9530 C   0  0
   -0.0840    0.9860   -0.6680 C   0  0
    1.2500    3.2760    0.3400 O   0  0
    1.1480    0.2640   -0.1190 C   0  0
   -0.9790    0.0740   -1.5060 C   0  0
   -0.8580    1.7380    0.4160 C   0  0
    2.0780    4.2910    0.8890 C   0  0
    0.8220   -1.1270    0.4260 C   0  0  1  0  0  0
    0.5020   -1.9630   -0.6620 O   0  0
    2.1030   -1.6520    1.0750 C   0  0
   -0.3650   -1.1190    1.3890 C   0  0
    3.0330   -0.6460    1.1270 F   0  0
    2.5980   -2.6930    0.3300 F   0  0
    1.8280   -2.0880    2.3440 F   0  0
   -1.0780   -2.4260    1.3890 C   0  0
   -2.4890   -2.4760    1.3890 C   0  0
   -0.3340   -3.6190    1.3890 C   0  0
   -3.1430   -3.7210    1.3890 C   0  0
   -3.2930   -1.2260    1.3890 C   0  0
   -0.9920   -4.8590    1.3890 C   0  0
   -2.3970   -4.9120    1.3890 C   0  0
    0.3200    0.8090   -3.3380 H   0  0
    2.7620    4.3280   -3.7770 H   0  0
    2.5760    4.7640   -1.3430 H   0  0
    1.6420    0.8690    0.6410 H   0  0
    1.9300    0.2070   -0.8750 H   0  0
   -1.6370    0.6410   -2.1640 H   0  0
   -1.6040   -0.5470   -0.8630 H   0  0
   -0.3770   -0.5900   -2.1270 H   0  0
   -0.9870    2.7910    0.1660 H   0  0
   -0.3340    1.6840    1.3710 H   0  0
   -1.8480    1.3050    0.5530 H   0  0
    3.1190    3.9880    0.7640 H   0  0
    1.7950    5.2420    0.4400 H   0  0
    1.8770    4.3540    1.9570 H   0  0
   -0.4630   -2.0510   -0.6810 H   0  0
   -1.0650   -0.3240    1.1330 H   0  0
   -0.0390   -0.8830    2.4030 H   0  0
    0.7460   -3.5880    1.3890 H   0  0
   -4.2230   -3.7680    1.3890 H   0  0
   -2.9160   -0.4490    2.0550 H   0  0
   -4.3170   -1.4530    1.6880 H   0  0
   -3.3240   -0.8120    0.3810 H   0  0
   -0.4180   -5.7750    1.3890 H   0  0
   -2.9030   -5.8650    1.3890 H   0  0
  1  2  1  0
  2  3  2  0
  2  4  1  0
  3  5  1  0
  4  6  2  0
  5  7  2  0
  5  8  1  0
  7  9  1  0
  8 10  1  0
  8 11  1  0
  8 12  1  0
  9 13  1  0
 10 14  1  0
 14 15  1  0
 14 16  1  0
 14 17  1  0
 16 18  1  0
 16 19  1  0
 16 20  1  0
 17 21  1  0
 21 22  2  0
 21 23  1  0
 22 24  1  0
 22 25  1  0
 23 26  2  0
 24 27  2  0
  6  7  1  0
 26 27  1  0
  3 28  1  0
  4 29  1  0
  6 30  1  0
 10 31  1  0
 10 32  1  0
 11 33  1  0
 11 34  1  0
 11 35  1  0
 12 36  1  0
 12 37  1  0
 12 38  1  0
 13 39  1  0
 13 40  1  0
 13 41  1  0
 15 42  1  0
 17 43  1  0
 17 44  1  0
 23 45  1  0
 24 46  1  0
 25 47  1  0
 25 48  1  0
 25 49  1  0
 26 50  1  0
 27 51  1  0
M  END
> <Name>
CHEMBL236747

> <IC50 nM>
855

> <Molecule_ChEMBL_ID>
CHEMBL236747

> <Smiles>
COc1ccc(F)cc1C(C)(C)CC(O)(Cc1ccccc1C)C(F)(F)F

$$$$
CHEMBL236320
  SciTegic08162514323D

 58 60  0  0  1  0            999 V2000
    1.4940    5.8340    0.1520 Br  0  0
    0.9630    4.6840   -1.2400 C   0  0
   -0.0080    3.6540   -1.1620 C   0  0
    1.4650    4.6910   -2.5610 C   0  0
   -0.0570    3.1000   -2.3930 N   0  0
   -0.7930    3.2720    0.0060 C   0  0
    0.8070    3.7110   -3.2070 N   0  0
    2.5140    5.5760   -3.2010 C   0  0
   -0.9320    1.9840   -2.7910 C   0  0
   -1.6640    4.0020    0.4180 O   0  0
   -0.5370    2.0820    0.6290 N   0  0
   -0.6070    1.5140   -4.2090 C   0  0
   -1.3320    1.6990    1.8070 C   0  0
   -1.5530    0.1870    1.8500 C   0  0  3  0  0  0
   -2.2580   -0.1880    0.6880 O   0  0
   -2.4410   -0.0900    3.0610 C   0  0
   -0.2420   -0.6000    1.8870 C   0  0
   -3.4790    0.8090    3.0820 F   0  0
   -1.7030    0.0390    4.2090 F   0  0
   -2.9430   -1.3630    2.9790 F   0  0
   -0.2580   -1.8220    0.9570 C   0  0  3  0  0  0
    1.0510   -2.5530    1.0180 C   0  0
   -1.4510   -2.7110    1.3710 C   0  0
   -0.4710   -1.3340   -0.4800 C   0  0
    1.1150   -3.9810    1.1020 C   0  0
    2.2660   -1.8130    0.9750 C   0  0
   -1.3830   -4.0860    0.7070 C   0  0
    2.3770   -4.6270    1.1500 C   0  0
   -0.1110   -4.8200    1.1480 C   0  0
    3.5160   -2.4690    1.0250 C   0  0
    3.5720   -3.8750    1.1130 C   0  0
    2.7050    5.3560   -4.2520 H   0  0
    3.4550    5.4710   -2.6620 H   0  0
    2.2030    6.6170   -3.1310 H   0  0
   -0.7830    1.1460   -2.1090 H   0  0
   -1.9730    2.2950   -2.7170 H   0  0
    0.1860    1.4840    0.2810 H   0  0
   -1.2300    0.6620   -4.4840 H   0  0
   -0.7680    2.3180   -4.9280 H   0  0
    0.4340    1.2010   -4.2830 H   0  0
   -2.2850    2.2290    1.7830 H   0  0
   -0.8220    2.0410    2.7070 H   0  0
   -2.9530    0.4730    0.5490 H   0  0
    0.0000   -0.8950    2.9080 H   0  0
    0.6040    0.0490    1.6580 H   0  0
   -2.3950   -2.2210    1.1210 H   0  0
   -1.4630   -2.8480    2.4550 H   0  0
   -0.3400   -0.2560   -0.5680 H   0  0
   -1.4790   -1.5760   -0.8240 H   0  0
    0.2340   -1.8130   -1.1600 H   0  0
    2.2440   -0.7360    0.9020 H   0  0
   -1.3960   -3.9750   -0.3770 H   0  0
   -2.2620   -4.6760    0.9690 H   0  0
    2.4340   -5.7030    1.2170 H   0  0
   -0.2400   -5.1700    2.1740 H   0  0
    0.0180   -5.7130    0.5330 H   0  0
    4.4280   -1.8910    0.9960 H   0  0
    4.5270   -4.3770    1.1520 H   0  0
  1  2  1  0
  2  3  2  0
  2  4  1  0
  3  5  1  0
  3  6  1  0
  4  7  2  0
  4  8  1  0
  5  9  1  0
  6 10  2  0
  6 11  1  0
  9 12  1  0
 11 13  1  0
 13 14  1  0
 14 15  1  0
 14 16  1  0
 14 17  1  0
 16 18  1  0
 16 19  1  0
 16 20  1  0
 17 21  1  0
 21 22  1  0
 21 23  1  0
 21 24  1  0
 22 25  2  0
 22 26  1  0
 23 27  1  0
 25 28  1  0
 25 29  1  0
 26 30  2  0
 28 31  2  0
  5  7  1  0
 27 29  1  0
 30 31  1  0
  8 32  1  0
  8 33  1  0
  8 34  1  0
  9 35  1  0
  9 36  1  0
 11 37  1  0
 12 38  1  0
 12 39  1  0
 12 40  1  0
 13 41  1  0
 13 42  1  0
 15 43  1  0
 17 44  1  0
 17 45  1  0
 23 46  1  0
 23 47  1  0
 24 48  1  0
 24 49  1  0
 24 50  1  0
 26 51  1  0
 27 52  1  0
 27 53  1  0
 28 54  1  0
 29 55  1  0
 29 56  1  0
 30 57  1  0
 31 58  1  0
M  END
> <Name>
CHEMBL236320

> <IC50 nM>
40.74

> <Molecule_ChEMBL_ID>
CHEMBL236320

> <Smiles>
CCn1nc(C)c(Br)c1C(=O)NCC(O)(CC1(C)CCCc2ccccc21)C(F)(F)F

$$$$
CHEMBL3263750
  SciTegic08162514323D

 55 58  0  0  1  0            999 V2000
   -2.9610   -0.1760    6.9300 O   0  0
   -3.3320   -0.7480    5.9300 C   0  0
   -4.4430   -1.4740    5.8630 O   0  0
   -2.5410   -0.6740    4.6640 C   0  0
   -1.3440    0.0690    4.6130 C   0  0
   -3.0000   -1.3490    3.5180 C   0  0
   -0.9020    0.7070    5.6800 O   0  0
   -0.6110    0.1270    3.4140 C   0  0
   -2.2640   -1.2870    2.3220 C   0  0
    0.3960    1.2760    5.6270 C   0  0
   -1.0700   -0.5490    2.2700 C   0  0
   -0.2870   -0.4820    0.9980 C   0  0
   -0.5960   -1.0550   -0.1090 N   0  0
    1.0020    0.2850    0.8340 C   0  0
    0.1990   -0.8550   -1.0140 N   0  0
    1.3220   -0.0080   -0.6250 C   0  0  1  0  0  0
    0.0470   -1.3890   -2.2660 C   0  0
    1.4160    1.2780   -1.4410 C   0  0
    1.1410   -1.4390   -3.1500 C   0  0
   -1.2130   -1.8910   -2.6740 C   0  0
    2.5180    2.1970   -0.9260 C   0  0
    0.1440    2.1290   -1.3520 C   0  0
    0.9980   -1.9840   -4.4410 C   0  0
   -1.3610   -2.4330   -3.9590 C   0  0
    2.1090    3.5280   -1.5450 C   0  0
    0.6210    3.5760   -1.2270 C   0  0
   -0.2720   -2.4840   -4.8420 C   0  0
    2.1720   -2.0230   -5.3520 C   0  0
   -0.4300   -3.0410   -6.1560 C   0  0
   -0.5590   -3.4940   -7.2210 N   0  0
   -5.0000   -1.5620    6.6470 H   0  0
   -3.9160   -1.9200    3.5510 H   0  0
    0.3050    0.6950    3.3790 H   0  0
   -2.6250   -1.8100    1.4470 H   0  0
    0.6070    1.7360    6.5900 H   0  0
    1.0940    0.5040    5.2990 H   0  0
    0.3940    2.0630    4.8730 H   0  0
    0.8480    1.3360    1.0350 H   0  0
    1.7620   -0.0940    1.5020 H   0  0
    2.2440   -0.5660   -0.7050 H   0  0
    1.6110    1.0330   -2.4770 H   0  0
    2.1130   -1.0580   -2.8500 H   0  0
   -2.0550   -1.8570   -2.0120 H   0  0
    3.5000    1.8810   -1.2420 H   0  0
    2.5120    2.2600    0.1540 H   0  0
   -0.4610    1.8650   -0.4960 H   0  0
   -0.4670    1.9880   -2.2310 H   0  0
   -2.3240   -2.8100   -4.2540 H   0  0
    2.2750    3.5200   -2.6130 H   0  0
    2.6480    4.3630   -1.1250 H   0  0
    0.0860    4.2420   -1.8890 H   0  0
    0.4690    3.9300   -0.2170 H   0  0
    1.9670   -2.4630   -6.3280 H   0  0
    2.9730   -2.6010   -4.8890 H   0  0
    2.5430   -1.0120   -5.5140 H   0  0
  1  2  2  0
  2  3  1  0
  2  4  1  0
  4  5  2  0
  4  6  1  0
  5  7  1  0
  5  8  1  0
  6  9  2  0
  7 10  1  0
  8 11  2  0
 11 12  1  0
 12 13  2  0
 12 14  1  0
 13 15  1  0
 14 16  1  0
 15 17  1  0
 16 18  1  0
 17 19  2  0
 17 20  1  0
 18 21  1  0
 18 22  1  0
 19 23  1  0
 20 24  2  0
 21 25  1  0
 22 26  1  0
 23 27  2  0
 23 28  1  0
 27 29  1  0
 29 30  3  0
  9 11  1  0
 15 16  1  0
 24 27  1  0
 25 26  1  0
  3 31  1  0
  6 32  1  0
  8 33  1  0
  9 34  1  0
 10 35  1  0
 10 36  1  0
 10 37  1  0
 14 38  1  0
 14 39  1  0
 16 40  1  0
 18 41  1  0
 19 42  1  0
 20 43  1  0
 21 44  1  0
 21 45  1  0
 22 46  1  0
 22 47  1  0
 24 48  1  0
 25 49  1  0
 25 50  1  0
 26 51  1  0
 26 52  1  0
 28 53  1  0
 28 54  1  0
 28 55  1  0
M  END
> <Name>
CHEMBL3263750

> <IC50 nM>
10000

> <Molecule_ChEMBL_ID>
CHEMBL3263750

> <Smiles>
COc1cc(C2=NN(c3ccc(C#N)c(C)c3)[C@@H](C3CCCC3)C2)ccc1C(=O)O

$$$$
CHEMBL3261403
  SciTegic08162514323D

 48 50  0  0  1  0            999 V2000
    0.7620   -2.0120    0.5800 S   0  0
    1.2680   -2.4100   -0.7210 O   0  0
    1.7580   -2.1050    1.6350 O   0  0
    0.3650   -0.3220    0.4450 N   0  0
   -0.5610   -3.0430    0.9900 C   0  0
   -0.3520    0.1170   -0.7400 C   0  0  2  0  0  0
   -0.5290   -4.4080    0.6460 C   0  0
   -1.6720   -2.5120    1.6680 C   0  0
   -0.4390    1.6430   -0.7770 C   0  0
   -1.7230   -0.5550   -0.8160 C   0  0
   -1.6130   -5.2380    0.9860 C   0  0
    0.6430   -4.9770   -0.0700 C   0  0
   -2.7540   -3.3440    2.0040 C   0  0
    0.8690    2.1910   -0.7850 O   0  0
   -2.7250   -4.7070    1.6640 C   0  0
    0.9920    3.5270   -0.8500 C   0  0
   -3.8690   -5.5860    2.0200 C   0  0
    2.2700    4.1450   -0.9060 C   0  0
   -0.1740    4.3280   -0.8590 C   0  0
    2.3650    5.5720   -0.9770 C   0  0
    3.4650    3.3730   -0.8950 C   0  0
   -0.0780    5.7360   -0.9280 C   0  0
    3.6490    6.1780   -1.0350 C   0  0
    1.1900    6.3630   -0.9860 C   0  0
    4.7150    4.0370   -0.9550 C   0  0
    4.7970    5.4140   -1.0230 N   0  0
   -0.1720   -0.0270    1.2730 H   0  0
    0.3030   -0.2520   -1.5310 H   0  0
   -1.6950   -1.4650    1.9300 H   0  0
   -0.9630    2.0220    0.1020 H   0  0
   -0.9550    1.9770   -1.6780 H   0  0
   -2.2770   -0.2010   -1.6840 H   0  0
   -1.6190   -1.6390   -0.8790 H   0  0
   -2.3120   -0.3280    0.0720 H   0  0
   -1.5900   -6.2870    0.7250 H   0  0
    1.6070   -4.6310    0.3030 H   0  0
    0.5840   -4.7170   -1.1270 H   0  0
    0.6250   -6.0630    0.0080 H   0  0
   -3.6040   -2.9300    2.5250 H   0  0
   -4.6800   -5.0780    2.5410 H   0  0
   -3.5180   -6.3970    2.6600 H   0  0
   -4.2810   -6.0310    1.1150 H   0  0
   -1.1460    3.8590   -0.8160 H   0  0
    3.4380    2.2930   -0.8420 H   0  0
   -0.9750    6.3380   -0.9340 H   0  0
    3.7440    7.2540   -1.0920 H   0  0
    1.2440    7.4420   -1.0390 H   0  0
    5.6230    3.4530   -0.9450 H   0  0
  1  2  2  0
  1  3  2  0
  1  4  1  0
  1  5  1  0
  4  6  1  0
  5  7  2  0
  5  8  1  0
  6  9  1  0
  6 10  1  0
  7 11  1  0
  7 12  1  0
  8 13  2  0
  9 14  1  0
 11 15  2  0
 14 16  1  0
 15 17  1  0
 16 18  2  0
 16 19  1  0
 18 20  1  0
 18 21  1  0
 19 22  2  0
 20 23  1  0
 20 24  2  0
 21 25  2  0
 23 26  2  0
 13 15  1  0
 22 24  1  0
 25 26  1  0
  4 27  1  0
  6 28  1  0
  8 29  1  0
  9 30  1  0
  9 31  1  0
 10 32  1  0
 10 33  1  0
 10 34  1  0
 11 35  1  0
 12 36  1  0
 12 37  1  0
 12 38  1  0
 13 39  1  0
 17 40  1  0
 17 41  1  0
 17 42  1  0
 19 43  1  0
 21 44  1  0
 22 45  1  0
 23 46  1  0
 24 47  1  0
 25 48  1  0
M  END
> <Name>
CHEMBL3261403

> <IC50 nM>
410

> <Molecule_ChEMBL_ID>
CHEMBL3261403

> <Smiles>
Cc1ccc(S(=O)(=O)N[C@@H](C)COc2cccc3cnccc23)c(C)c1

$$$$
CHEMBL3261422
  SciTegic08162514323D

 61 64  0  0  1  0            999 V2000
   -1.2320   -3.6990    1.1700 S   0  0
   -0.8570   -4.8260    0.3320 O   0  0
   -0.2400   -3.3830    2.1820 O   0  0
   -1.2970   -2.3180    0.1130 N   0  0
   -2.7170   -4.0840    1.9670 C   0  0
   -0.0680   -1.9000   -0.5410 C   0  0  2  0  0  0
   -3.6020   -3.0550    2.3420 C   0  0
   -3.0410   -5.4260    2.2380 C   0  0
   -0.1210   -0.4100   -0.8750 C   0  0
    0.2070   -2.7720   -1.7680 C   0  0
   -4.8090   -3.3690    2.9880 C   0  0
   -3.2640   -1.6350    2.0570 C   0  0
   -4.2500   -5.7380    2.8870 C   0  0
   -2.1130   -6.5200    1.8460 C   0  0
    1.5000    0.1820   -1.3480 S   0  0
   -5.1330   -4.7110    3.2620 C   0  0
    1.8240   -0.3440   -2.6640 O   0  0
    2.4570   -0.2030   -0.3260 O   0  0
    1.4690    1.8930   -1.4430 C   0  0
   -6.4100   -5.0410    3.9470 C   0  0
    2.6700    2.6450   -1.5510 C   0  0
    0.2250    2.5740   -1.4140 C   0  0
    2.6020    4.0230   -1.6250 C   0  0
    3.9240    2.0530   -1.5860 C   0  0
    0.1800    3.9920   -1.4920 C   0  0
    3.9100    4.3750   -1.7150 N   0  0
    1.3810    4.7360   -1.6000 C   0  0
    4.6560    3.2170   -1.6910 N   0  0
    4.4140    5.6330   -1.8130 C   0  0
    5.4690    5.9040   -2.7050 C   0  0
    3.8810    6.6700   -1.0230 C   0  0
    5.9880    7.2070   -2.8050 C   0  0
    4.4020    7.9710   -1.1250 C   0  0
    5.4570    8.2400   -2.0160 C   0  0
    5.9490    9.4730   -2.1110 F   0  0
   -2.0120   -2.4750   -0.6130 H   0  0
    0.6640   -2.0960    0.2420 H   0  0
   -0.4820    0.1640   -0.0210 H   0  0
   -0.8260   -0.2210   -1.6840 H   0  0
    1.2070   -2.5820   -2.1560 H   0  0
    0.1170   -3.8280   -1.5180 H   0  0
   -0.5060   -2.5550   -2.5630 H   0  0
   -5.4880   -2.5800    3.2770 H   0  0
   -2.2250   -1.3730    2.2500 H   0  0
   -3.8910   -0.9840    2.6660 H   0  0
   -3.4750   -1.4140    1.0100 H   0  0
   -4.5000   -6.7680    3.0980 H   0  0
   -1.0660   -6.3260    2.0840 H   0  0
   -2.1840   -6.6880    0.7710 H   0  0
   -2.4040   -7.4420    2.3460 H   0  0
   -6.5650   -6.1060    4.1190 H   0  0
   -7.2480   -4.6760    3.3520 H   0  0
   -6.4450   -4.5390    4.9140 H   0  0
   -0.6950    2.0120   -1.3320 H   0  0
    4.2740    1.0290   -1.5490 H   0  0
   -0.7710    4.5020   -1.4710 H   0  0
    1.3590    5.8150   -1.6580 H   0  0
    5.8930    5.1230   -3.3200 H   0  0
    3.0700    6.4820   -0.3320 H   0  0
    6.7990    7.4080   -3.4900 H   0  0
    3.9900    8.7640   -0.5160 H   0  0
  1  2  2  0
  1  3  2  0
  1  4  1  0
  1  5  1  0
  4  6  1  0
  5  7  2  0
  5  8  1  0
  6  9  1  0
  6 10  1  0
  7 11  1  0
  7 12  1  0
  8 13  2  0
  8 14  1  0
  9 15  1  0
 11 16  2  0
 15 17  2  0
 15 18  2  0
 15 19  1  0
 16 20  1  0
 19 21  2  0
 19 22  1  0
 21 23  1  0
 21 24  1  0
 22 25  2  0
 23 26  1  0
 23 27  2  0
 24 28  2  0
 26 29  1  0
 29 30  2  0
 29 31  1  0
 30 32  1  0
 31 33  2  0
 32 34  2  0
 34 35  1  0
 13 16  1  0
 25 27  1  0
 26 28  1  0
 33 34  1  0
  4 36  1  0
  6 37  1  0
  9 38  1  0
  9 39  1  0
 10 40  1  0
 10 41  1  0
 10 42  1  0
 11 43  1  0
 12 44  1  0
 12 45  1  0
 12 46  1  0
 13 47  1  0
 14 48  1  0
 14 49  1  0
 14 50  1  0
 20 51  1  0
 20 52  1  0
 20 53  1  0
 22 54  1  0
 24 55  1  0
 25 56  1  0
 27 57  1  0
 30 58  1  0
 31 59  1  0
 32 60  1  0
 33 61  1  0
M  END
> <Name>
CHEMBL3261422

> <IC50 nM>
795

> <Molecule_ChEMBL_ID>
CHEMBL3261422

> <Smiles>
Cc1cc(C)c(S(=O)(=O)NC(C)CS(=O)(=O)c2cccc3c2cnn3-c2ccc(F)cc2)c(C)c1

$$$$
CHEMBL415524
  SciTegic08162514323D

 57 61  0  0  0  0            999 V2000
    3.6430   -6.1970    0.8050 F   0  0
    3.2660   -4.9750    0.4400 C   0  0
    1.9810   -4.4980    0.7930 C   0  0
    4.1470   -4.1580   -0.3030 C   0  0
    1.5660   -3.1900    0.4120 C   0  0
    3.7540   -2.8580   -0.6820 C   0  0
    2.4790   -2.3610   -0.3200 C   0  0
    0.2130   -2.6560    0.7330 C   0  0
    2.1580   -1.0980   -0.6720 O   0  0
   -0.1480   -1.3770    0.2210 C   0  0
   -0.7230   -3.3710    1.5290 C   0  0
    0.9880   -0.5490   -0.3100 C   0  0
   -1.5250   -0.9670    0.2560 C   0  0
   -2.0040   -2.8380    1.7750 C   0  0
    0.9140    0.8010   -0.3810 C   0  0
   -2.4160   -1.6350    1.1490 C   0  0
   -2.0920    0.1010   -0.6370 C   0  0
    2.0180    1.6350   -0.9530 C   0  0
   -3.6580   -1.1410    1.3910 N   0  0
   -3.2970    0.6330   -0.3420 C   0  0
   -1.4060    0.5800   -1.8940 C   0  0
    2.3460    2.8850   -0.3870 C   0  0
    2.7320    1.1640   -2.0700 C   0  0
   -4.1070    0.1780    0.8580 C   0  0
    3.3850    3.6520   -0.9410 C   0  0
    1.6060    3.4060    0.7930 C   0  0
    3.7700    1.9340   -2.6210 C   0  0
   -5.5740    0.0620    0.4340 C   0  0
   -3.9770    1.2280    1.9630 C   0  0
    4.0960    3.1800   -2.0570 C   0  0
    0.3770    4.2150    0.3750 C   0  0
    1.3400   -5.1600    1.3540 H   0  0
    5.1230   -4.5260   -0.5800 H   0  0
    4.4320   -2.2360   -1.2500 H   0  0
   -0.4900   -4.3280    1.9750 H   0  0
   -2.6680   -3.3690    2.4430 H   0  0
    0.0570    1.3400   -0.0100 H   0  0
   -4.3010   -1.6560    1.9610 H   0  0
   -3.7050    1.4040   -0.9800 H   0  0
   -0.5470   -0.0250   -2.1760 H   0  0
   -1.0640    1.6050   -1.7620 H   0  0
   -2.1110    0.5680   -2.7270 H   0  0
    2.4880    0.2090   -2.5120 H   0  0
    3.6430    4.6110   -0.5120 H   0  0
    1.3160    2.5740    1.4380 H   0  0
    2.2750    4.0100    1.4060 H   0  0
    4.3170    1.5700   -3.4790 H   0  0
   -5.7150   -0.6780   -0.3530 H   0  0
   -5.9450    1.0180    0.0630 H   0  0
   -6.1970   -0.2290    1.2790 H   0  0
   -2.9450    1.3440    2.2950 H   0  0
   -4.5760    0.9510    2.8300 H   0  0
   -4.3240    2.2010    1.6130 H   0  0
    4.8950    3.7710   -2.4780 H   0  0
   -0.1430    4.6070    1.2500 H   0  0
    0.6640    5.0470   -0.2680 H   0  0
   -0.3260    3.5920   -0.1780 H   0  0
  1  2  1  0
  2  3  2  0
  2  4  1  0
  3  5  1  0
  4  6  2  0
  5  7  2  0
  5  8  1  0
  7  9  1  0
  8 10  2  0
  8 11  1  0
  9 12  1  0
 10 13  1  0
 11 14  2  0
 12 15  2  0
 13 16  2  0
 13 17  1  0
 15 18  1  0
 16 19  1  0
 17 20  2  0
 17 21  1  0
 18 22  2  0
 18 23  1  0
 19 24  1  0
 22 25  1  0
 22 26  1  0
 23 27  2  0
 24 28  1  0
 24 29  1  0
 25 30  2  0
 26 31  1  0
  6  7  1  0
 10 12  1  0
 14 16  1  0
 20 24  1  0
 27 30  1  0
  3 32  1  0
  4 33  1  0
  6 34  1  0
 11 35  1  0
 14 36  1  0
 15 37  1  0
 19 38  1  0
 20 39  1  0
 21 40  1  0
 21 41  1  0
 21 42  1  0
 23 43  1  0
 25 44  1  0
 26 45  1  0
 26 46  1  0
 27 47  1  0
 28 48  1  0
 28 49  1  0
 28 50  1  0
 29 51  1  0
 29 52  1  0
 29 53  1  0
 30 54  1  0
 31 55  1  0
 31 56  1  0
 31 57  1  0
M  END
> <Name>
CHEMBL415524

> <IC50 nM>
77

> <Molecule_ChEMBL_ID>
CHEMBL415524

> <Smiles>
CCc1ccccc1/C=C1\Oc2ccc(F)cc2-c2ccc3c(c21)C(C)=CC(C)(C)N3

$$$$
CHEMBL3261407
  SciTegic08162514323D

 60 63  0  0  1  0            999 V2000
   -0.6350   -3.7810    0.1720 S   0  0
   -1.6700   -4.7970    0.2440 O   0  0
    0.1890   -3.8870   -1.0210 O   0  0
   -1.4670   -2.2580    0.0450 N   0  0
    0.3890   -3.9450    1.5550 C   0  0
   -2.2360   -1.9980   -1.1580 C   0  0  2  0  0  0
    0.5510   -5.2050    2.1620 C   0  0
    1.0590   -2.8200    2.0720 C   0  0
   -2.6020   -0.5160   -1.2520 C   0  0
   -3.4610   -2.9120   -1.2190 C   0  0
    1.3850   -5.3380    3.2870 C   0  0
   -0.1520   -6.3970    1.6210 C   0  0
    1.8910   -2.9570    3.1970 C   0  0
    0.8930   -1.4880    1.4340 C   0  0
   -1.3960    0.3160   -1.3790 N   0  0
    2.0550   -4.2150    3.8050 C   0  0
   -1.5080    1.6560   -1.4490 C   0  0
    2.9340   -4.3560    4.9940 C   0  0
   -0.2730    2.3830   -1.5570 C   0  0
   -2.7500    2.3420   -1.4200 C   0  0
   -0.3500    3.7680   -1.6310 C   0  0
    1.0020    1.8200   -1.5960 C   0  0
   -2.7750    3.7580   -1.4980 C   0  0
    0.9550    4.1350   -1.7210 N   0  0
   -1.5680    4.4880   -1.6050 C   0  0
    1.7190    2.9920   -1.6990 N   0  0
    1.4400    5.4000   -1.8180 C   0  0
    2.4670    5.6950   -2.7340 C   0  0
    0.9160    6.4220   -1.0040 C   0  0
    2.9690    7.0040   -2.8340 C   0  0
    1.4180    7.7310   -1.1030 C   0  0
    2.4430    8.0230   -2.0190 C   0  0
    2.9200    9.2620   -2.1130 F   0  0
   -2.0880   -2.1390    0.8580 H   0  0
   -1.5180   -2.2680   -1.9320 H   0  0
   -3.1620   -0.2010   -0.3730 H   0  0
   -3.2540   -0.3340   -2.1050 H   0  0
   -3.1600   -3.9510   -1.3440 H   0  0
   -4.0550   -2.8220   -0.3080 H   0  0
   -4.1000   -2.6470   -2.0600 H   0  0
    1.5100   -6.3030    3.7560 H   0  0
   -0.1150   -6.4860    0.5350 H   0  0
   -1.2010   -6.3650    1.9160 H   0  0
    0.2850   -7.3010    2.0450 H   0  0
    2.4060   -2.0940    3.5940 H   0  0
    0.9400   -1.5020    0.3460 H   0  0
    1.6700   -0.8150    1.7930 H   0  0
   -0.0720   -1.0660    1.7190 H   0  0
   -0.4940   -0.1130   -1.4140 H   0  0
    3.4060   -3.4280    5.3170 H   0  0
    3.7250   -5.0740    4.7800 H   0  0
    2.3540   -4.7420    5.8320 H   0  0
   -3.6800    1.7970   -1.3380 H   0  0
    1.3770    0.8050   -1.5580 H   0  0
   -3.7210    4.2810   -1.4760 H   0  0
   -1.5800    5.5660   -1.6640 H   0  0
    2.8830    4.9260   -3.3690 H   0  0
    0.1250    6.2170   -0.2930 H   0  0
    3.7580    7.2250   -3.5390 H   0  0
    1.0120    8.5120   -0.4760 H   0  0
  1  2  2  0
  1  3  2  0
  1  4  1  0
  1  5  1  0
  4  6  1  0
  5  7  2  0
  5  8  1  0
  6  9  1  0
  6 10  1  0
  7 11  1  0
  7 12  1  0
  8 13  2  0
  8 14  1  0
  9 15  1  0
 11 16  2  0
 15 17  1  0
 16 18  1  0
 17 19  2  0
 17 20  1  0
 19 21  1  0
 19 22  1  0
 20 23  2  0
 21 24  1  0
 21 25  2  0
 22 26  2  0
 24 27  1  0
 27 28  2  0
 27 29  1  0
 28 30  1  0
 29 31  2  0
 30 32  2  0
 32 33  1  0
 13 16  1  0
 23 25  1  0
 24 26  1  0
 31 32  1  0
  4 34  1  0
  6 35  1  0
  9 36  1  0
  9 37  1  0
 10 38  1  0
 10 39  1  0
 10 40  1  0
 11 41  1  0
 12 42  1  0
 12 43  1  0
 12 44  1  0
 13 45  1  0
 14 46  1  0
 14 47  1  0
 14 48  1  0
 15 49  1  0
 18 50  1  0
 18 51  1  0
 18 52  1  0
 20 53  1  0
 22 54  1  0
 23 55  1  0
 25 56  1  0
 28 57  1  0
 29 58  1  0
 30 59  1  0
 31 60  1  0
M  END
> <Name>
CHEMBL3261407

> <IC50 nM>
4.9

> <Molecule_ChEMBL_ID>
CHEMBL3261407

> <Smiles>
Cc1cc(C)c(S(=O)(=O)N[C@@H](C)CNc2cccc3c2cnn3-c2ccc(F)cc2)c(C)c1

$$$$
CHEMBL3261427
  SciTegic08162514323D

 68 72  0  0  1  0            999 V2000
    1.0820   -1.3010   -2.8710 S   0  0
    1.3890   -1.2810   -4.2910 O   0  0
    2.1110   -1.9410   -2.0720 O   0  0
    1.0450    0.3630   -2.3650 N   0  0
   -0.3830   -2.1600   -2.6480 C   0  0
    2.2850    1.1170   -2.4140 C   0  0  2  0  0  0
   -1.4320   -1.7750   -1.7970 C   0  0
   -0.7290   -3.3630   -3.2890 C   0  0
    2.1620    2.4060   -1.6000 C   0  0
    2.6990    1.3750   -3.8630 C   0  0
   -2.3630   -2.7380   -1.9450 N   0  0
   -1.5660   -0.5700   -0.8910 C   0  0
   -1.9590   -3.6760   -2.8180 N   0  0
    0.0550   -4.1840   -4.2930 C   0  0
    1.9650    2.1090   -0.1740 N   0  0
   -2.7440   -4.8590   -3.1990 C   0  0
    1.7990    3.1150    0.7070 C   0  0
   -4.1820   -4.8160   -2.6860 C   0  0
   -2.2310   -6.1560   -2.5740 C   0  0
    1.5920    2.7270    2.0720 C   0  0
    1.8200    4.4880    0.3420 C   0  0
   -4.6390   -6.2440   -2.9530 C   0  0
   -3.4340   -7.1020   -2.5680 C   0  0
    1.4140    3.7360    3.0080 C   0  0
    1.5510    1.4160    2.5490 C   0  0
    1.6350    5.4840    1.3340 C   0  0
    1.2480    3.0490    4.1660 N   0  0
    1.4300    5.1150    2.6860 C   0  0
    1.3320    1.7070    3.8770 N   0  0
    1.0370    3.5720    5.4020 C   0  0
    0.0630    3.0080    6.2500 C   0  0
    1.7910    4.6780    5.8400 C   0  0
   -0.1580    3.5490    7.5290 C   0  0
    1.5740    5.2210    7.1170 C   0  0
    0.5980    4.6540    7.9570 C   0  0
    0.3730    5.2090    9.2660 C   0  0
    0.1930    5.6560   10.3200 N   0  0
    0.3360    0.8730   -2.9120 H   0  0
    2.9750    0.4240   -1.9340 H   0  0
    1.3280    3.0100   -1.9590 H   0  0
    3.0510    3.0230   -1.7190 H   0  0
    2.9570    0.4390   -4.3630 H   0  0
    1.8950    1.8610   -4.4140 H   0  0
    3.5740    2.0250   -3.9060 H   0  0
   -2.3630   -0.6520   -0.1500 H   0  0
   -1.7600    0.3160   -1.4920 H   0  0
   -0.6290   -0.4140   -0.3550 H   0  0
    1.0060   -3.7400   -4.5900 H   0  0
   -0.5430   -4.3240   -5.1930 H   0  0
    0.2640   -5.1680   -3.8750 H   0  0
    1.9550    1.1620    0.1450 H   0  0
   -2.7420   -4.9410   -4.2770 H   0  0
   -4.7870   -4.0900   -3.2070 H   0  0
   -4.2210   -4.5960   -1.6270 H   0  0
   -1.8980   -5.9960   -1.5570 H   0  0
   -1.3970   -6.5670   -3.1250 H   0  0
    1.9750    4.7830   -0.6860 H   0  0
   -5.5250   -6.5020   -2.3930 H   0  0
   -4.8630   -6.3690   -4.0040 H   0  0
   -3.5650   -7.5310   -1.5840 H   0  0
   -3.3050   -7.9180   -3.2640 H   0  0
    1.6520    0.4430    2.0820 H   0  0
    1.6520    6.5270    1.0570 H   0  0
    1.2870    5.8690    3.4450 H   0  0
   -0.5270    2.1600    5.9360 H   0  0
    2.5450    5.1250    5.2050 H   0  0
   -0.9080    3.1070    8.1680 H   0  0
    2.1580    6.0700    7.4400 H   0  0
  1  2  2  0
  1  3  2  0
  1  4  1  0
  1  5  1  0
  4  6  1  0
  5  7  1  0
  5  8  2  0
  6  9  1  0
  6 10  1  0
  7 11  2  0
  7 12  1  0
  8 13  1  0
  8 14  1  0
  9 15  1  0
 13 16  1  0
 15 17  1  0
 16 18  1  0
 16 19  1  0
 17 20  2  0
 17 21  1  0
 18 22  1  0
 19 23  1  0
 20 24  1  0
 20 25  1  0
 21 26  2  0
 24 27  1  0
 24 28  2  0
 25 29  2  0
 27 30  1  0
 30 31  2  0
 30 32  1  0
 31 33  1  0
 32 34  2  0
 33 35  2  0
 35 36  1  0
 36 37  3  0
 11 13  1  0
 22 23  1  0
 26 28  1  0
 27 29  1  0
 34 35  1  0
  4 38  1  0
  6 39  1  0
  9 40  1  0
  9 41  1  0
 10 42  1  0
 10 43  1  0
 10 44  1  0
 12 45  1  0
 12 46  1  0
 12 47  1  0
 14 48  1  0
 14 49  1  0
 14 50  1  0
 15 51  1  0
 16 52  1  0
 18 53  1  0
 18 54  1  0
 19 55  1  0
 19 56  1  0
 21 57  1  0
 22 58  1  0
 22 59  1  0
 23 60  1  0
 23 61  1  0
 25 62  1  0
 26 63  1  0
 28 64  1  0
 31 65  1  0
 32 66  1  0
 33 67  1  0
 34 68  1  0
M  END
> <Name>
CHEMBL3261427

> <IC50 nM>
4.7

> <Molecule_ChEMBL_ID>
CHEMBL3261427

> <Smiles>
Cc1nn(C2CCCC2)c(C)c1S(=O)(=O)N[C@@H](C)CNc1cccc2c1cnn2-c1ccc(C#N)cc1

$$$$
CHEMBL3261420
  SciTegic08162514323D

 61 64  0  0  1  0            999 V2000
   -0.2770   -3.7680    0.7830 S   0  0
   -1.4750   -4.5900    0.8180 O   0  0
    0.5550   -4.0180   -0.3810 O   0  0
   -0.8280   -2.1250    0.6370 N   0  0
    0.6540   -4.1070    2.2010 C   0  0
   -1.4960   -1.7360   -0.5920 C   0  0  2  0  0  0
    1.4880   -3.1130    2.7460 C   0  0
    0.5760   -5.3750    2.8070 C   0  0
   -1.5940   -0.2130   -0.6920 C   0  0
   -2.8600   -2.4220   -0.6990 C   0  0
    2.2460   -3.3910    3.8980 C   0  0
    1.5760   -1.7710    2.1110 C   0  0
    1.3340   -5.6480    3.9590 C   0  0
   -0.3050   -6.4280    2.2360 C   0  0
   -1.8950    0.2680   -2.1110 C   0  0
    2.1700   -4.6560    4.5060 C   0  0
   -1.9120    1.7400   -2.1930 C   0  0
    2.9710   -4.9470    5.7230 C   0  0
   -0.7070    2.4920   -2.3010 C   0  0
   -3.1560    2.4240   -2.1640 C   0  0
   -0.7810    3.8730   -2.3750 C   0  0
    0.5510    1.9100   -2.3380 C   0  0
   -3.2010    3.8400   -2.2420 C   0  0
    0.5250    4.2290   -2.4650 N   0  0
   -2.0020    4.5860   -2.3480 C   0  0
    1.2770    3.0760   -2.4420 N   0  0
    1.0210    5.4900   -2.5630 C   0  0
    2.0680    5.7700   -3.4630 C   0  0
    0.4920    6.5220   -1.7640 C   0  0
    2.5820    7.0740   -3.5630 C   0  0
    1.0080    7.8260   -1.8650 C   0  0
    2.0510    8.1040   -2.7640 C   0  0
    2.5390    9.3380   -2.8600 F   0  0
   -1.4490   -1.8980    1.4280 H   0  0
   -0.8090   -2.1270   -1.3400 H   0  0
   -0.6860    0.2560   -0.3110 H   0  0
   -2.3320    0.1740    0.0120 H   0  0
   -3.4060   -2.0550   -1.5680 H   0  0
   -2.7400   -3.5020   -0.7830 H   0  0
   -3.4630   -2.2190    0.1840 H   0  0
    2.8870   -2.6290    4.3180 H   0  0
    1.6330   -1.7950    1.0210 H   0  0
    2.4590   -1.2520    2.4800 H   0  0
    0.7030   -1.1820    2.3870 H   0  0
    1.2750   -6.6210    4.4260 H   0  0
   -0.2330   -6.5330    1.1520 H   0  0
   -1.3440   -6.2070    2.4800 H   0  0
   -0.0550   -7.3910    2.6820 H   0  0
   -2.8500   -0.1270   -2.4570 H   0  0
   -1.1620   -0.1270   -2.8150 H   0  0
    2.8420   -5.9570    6.1130 H   0  0
    2.6970   -4.2480    6.5120 H   0  0
    4.0290   -4.8070    5.5040 H   0  0
   -4.0800    1.8650   -2.0820 H   0  0
    0.9060    0.8890   -2.2990 H   0  0
   -4.1530    4.3520   -2.2190 H   0  0
   -2.0240    5.6640   -2.4080 H   0  0
    2.4900    4.9920   -4.0860 H   0  0
   -0.3110    6.3280   -1.0670 H   0  0
    3.3850    7.2830   -4.2540 H   0  0
    0.5980    8.6140   -1.2500 H   0  0
  1  2  2  0
  1  3  2  0
  1  4  1  0
  1  5  1  0
  4  6  1  0
  5  7  2  0
  5  8  1  0
  6  9  1  0
  6 10  1  0
  7 11  1  0
  7 12  1  0
  8 13  2  0
  8 14  1  0
  9 15  1  0
 11 16  2  0
 15 17  1  0
 16 18  1  0
 17 19  2  0
 17 20  1  0
 19 21  1  0
 19 22  1  0
 20 23  2  0
 21 24  1  0
 21 25  2  0
 22 26  2  0
 24 27  1  0
 27 28  2  0
 27 29  1  0
 28 30  1  0
 29 31  2  0
 30 32  2  0
 32 33  1  0
 13 16  1  0
 23 25  1  0
 24 26  1  0
 31 32  1  0
  4 34  1  0
  6 35  1  0
  9 36  1  0
  9 37  1  0
 10 38  1  0
 10 39  1  0
 10 40  1  0
 11 41  1  0
 12 42  1  0
 12 43  1  0
 12 44  1  0
 13 45  1  0
 14 46  1  0
 14 47  1  0
 14 48  1  0
 15 49  1  0
 15 50  1  0
 18 51  1  0
 18 52  1  0
 18 53  1  0
 20 54  1  0
 22 55  1  0
 23 56  1  0
 25 57  1  0
 28 58  1  0
 29 59  1  0
 30 60  1  0
 31 61  1  0
M  END
> <Name>
CHEMBL3261420

> <IC50 nM>
23

> <Molecule_ChEMBL_ID>
CHEMBL3261420

> <Smiles>
Cc1cc(C)c(S(=O)(=O)N[C@@H](C)CCc2cccc3c2cnn3-c2ccc(F)cc2)c(C)c1

$$$$
CHEMBL3261417
  SciTegic08162514323D

 60 63  0  0  1  0            999 V2000
   -0.6430   -3.7810    0.1740 S   0  0
   -1.6890   -4.7870    0.2210 O   0  0
    0.2070   -3.8910   -1.0000 O   0  0
   -1.4550   -2.2480    0.0350 N   0  0
    0.3480   -3.9610    1.5800 C   0  0
   -2.1990   -1.9790   -1.1840 C   0  0  2  0  0  0
    0.4840   -5.2250    2.1860 C   0  0
    1.0160   -2.8440    2.1170 C   0  0
   -2.5630   -0.4960   -1.2720 C   0  0
   -3.4220   -2.8930   -1.2790 C   0  0
    1.2890   -5.3690    3.3300 C   0  0
   -0.2190   -6.4080    1.6230 C   0  0
    1.8200   -2.9920    3.2600 C   0  0
    0.8750   -1.5080    1.4820 C   0  0
   -1.3570    0.3360   -1.3930 N   0  0
    1.9570   -4.2540    3.8670 C   0  0
   -1.4690    1.6780   -1.4630 C   0  0
    2.8090   -4.4080    5.0760 C   0  0
   -0.2360    2.4040   -1.5700 C   0  0
   -2.7110    2.3610   -1.4340 C   0  0
   -0.3130    3.7870   -1.6450 C   0  0
    1.0410    1.8420   -1.6090 C   0  0
   -2.7380    3.7770   -1.5120 C   0  0
    0.9920    4.1560   -1.7360 N   0  0
   -1.5290    4.5080   -1.6190 C   0  0
    1.7560    3.0140   -1.7130 N   0  0
    1.4770    5.4200   -1.8320 C   0  0
    2.5060    5.7150   -2.7480 C   0  0
    0.9530    6.4430   -1.0180 C   0  0
    3.0080    7.0260   -2.8480 C   0  0
    1.4550    7.7520   -1.1190 C   0  0
    3.9810    7.3030   -3.7130 F   0  0
    2.4820    8.0430   -2.0330 C   0  0
   -2.0920   -2.1250    0.8360 H   0  0
   -1.4630   -2.2400   -1.9410 H   0  0
   -3.1250   -0.1860   -0.3910 H   0  0
   -3.2170   -0.3110   -2.1230 H   0  0
   -3.1150   -3.9320   -1.4120 H   0  0
   -4.0330   -2.8140   -0.3810 H   0  0
   -4.0430   -2.6170   -2.1310 H   0  0
    1.3950   -6.3380    3.7950 H   0  0
   -0.1450   -6.5020    0.5410 H   0  0
   -1.2770   -6.3570    1.8810 H   0  0
    0.1890   -7.3160    2.0660 H   0  0
    2.3340   -2.1370    3.6740 H   0  0
    0.9220   -1.5210    0.3930 H   0  0
    1.6660   -0.8500    1.8420 H   0  0
   -0.0800   -1.0660    1.7700 H   0  0
   -0.4550   -0.0940   -1.4260 H   0  0
    3.2810   -3.4860    5.4120 H   0  0
    3.5980   -5.1330    4.8750 H   0  0
    2.2050   -4.7930    5.8980 H   0  0
   -3.6430    1.8180   -1.3540 H   0  0
    1.4140    0.8260   -1.5720 H   0  0
   -3.6840    4.3010   -1.4920 H   0  0
   -1.5430    5.5860   -1.6800 H   0  0
    2.9200    4.9420   -3.3810 H   0  0
    0.1620    6.2380   -0.3090 H   0  0
    1.0510    8.5330   -0.4940 H   0  0
    2.8650    9.0510   -2.1070 H   0  0
  1  2  2  0
  1  3  2  0
  1  4  1  0
  1  5  1  0
  4  6  1  0
  5  7  2  0
  5  8  1  0
  6  9  1  0
  6 10  1  0
  7 11  1  0
  7 12  1  0
  8 13  2  0
  8 14  1  0
  9 15  1  0
 11 16  2  0
 15 17  1  0
 16 18  1  0
 17 19  2  0
 17 20  1  0
 19 21  1  0
 19 22  1  0
 20 23  2  0
 21 24  1  0
 21 25  2  0
 22 26  2  0
 24 27  1  0
 27 28  2  0
 27 29  1  0
 28 30  1  0
 29 31  2  0
 30 32  1  0
 30 33  2  0
 13 16  1  0
 23 25  1  0
 24 26  1  0
 31 33  1  0
  4 34  1  0
  6 35  1  0
  9 36  1  0
  9 37  1  0
 10 38  1  0
 10 39  1  0
 10 40  1  0
 11 41  1  0
 12 42  1  0
 12 43  1  0
 12 44  1  0
 13 45  1  0
 14 46  1  0
 14 47  1  0
 14 48  1  0
 15 49  1  0
 18 50  1  0
 18 51  1  0
 18 52  1  0
 20 53  1  0
 22 54  1  0
 23 55  1  0
 25 56  1  0
 28 57  1  0
 29 58  1  0
 31 59  1  0
 33 60  1  0
M  END
> <Name>
CHEMBL3261417

> <IC50 nM>
28

> <Molecule_ChEMBL_ID>
CHEMBL3261417

> <Smiles>
Cc1cc(C)c(S(=O)(=O)N[C@@H](C)CNc2cccc3c2cnn3-c2cccc(F)c2)c(C)c1

$$$$
CHEMBL1644754
  SciTegic08162514323D

 46 49  0  0  1  0            999 V2000
    1.1660   -2.3150   -0.7030 Cl  0  0
    0.5120   -0.7170   -0.5390 C   0  0
    1.3870    0.4060   -0.5020 C   0  0
   -0.9020   -0.5140   -0.4380 C   0  0
    2.8340    0.2600   -0.6050 C   0  0
    0.8730    1.7110   -0.3650 C   0  0
   -1.4220    0.8160   -0.2950 C   0  0
   -1.8320   -1.6860   -0.4750 C   0  0  2  0  0  0
    3.5920   -0.3010    0.4550 C   0  0
    3.5080    0.6800   -1.7810 C   0  0
   -0.5180    1.9220   -0.2600 C   0  0
   -2.7640    1.0410   -0.1910 N   0  0
   -3.2640   -1.3160   -0.7790 C   0  0
   -1.7830   -2.4630    0.8460 C   0  0
    3.2360   -0.7950    1.7050 N   0  0
    4.9530   -0.4360    0.3570 C   0  0
    4.9200    0.5350   -1.8770 C   0  0
   -0.9860    3.3160   -0.1170 C   0  0
   -3.7870   -0.0350   -0.1680 C   0  0
   -3.9510   -2.0180   -1.4860 O   0  0
    4.4280   -1.2250    2.3400 C   0  0
    5.6560   -0.0270   -0.8030 C   0  0
    5.5000   -0.9860    1.4630 C   0  0
   -5.0220    0.4470   -0.9410 C   0  0
   -4.1840   -0.3070    1.2850 C   0  0
    1.5390    2.5620   -0.3380 H   0  0
   -1.5160   -2.3540   -1.2770 H   0  0
    2.9630    1.1090   -2.6110 H   0  0
   -3.1150    1.9770   -0.1210 H   0  0
   -2.6780   -3.0720    0.9670 H   0  0
   -0.9040   -3.1090    0.8790 H   0  0
   -1.7270   -1.7810    1.6910 H   0  0
    2.3200   -0.8400    2.0860 H   0  0
    5.4340    0.8530   -2.7720 H   0  0
   -1.5780    3.5000    0.7790 H   0  0
   -1.5980    3.5840   -0.9790 H   0  0
   -0.1290    3.9860   -0.0940 H   0  0
    4.4610   -1.6580    3.3300 H   0  0
    6.7290   -0.1350   -0.8770 H   0  0
    6.5450   -1.2050    1.6480 H   0  0
   -4.7930    0.6520   -1.9880 H   0  0
   -5.4180    1.3630   -0.5040 H   0  0
   -5.8130   -0.3050   -0.9140 H   0  0
   -3.3150   -0.4810    1.9180 H   0  0
   -4.8260   -1.1840    1.3520 H   0  0
   -4.7320    0.5410    1.6990 H   0  0
  1  2  1  0
  2  3  2  0
  2  4  1  0
  3  5  1  0
  3  6  1  0
  4  7  2  0
  4  8  1  0
  5  9  2  0
  5 10  1  0
  6 11  2  0
  7 12  1  0
  8 13  1  0
  8 14  1  0
  9 15  1  0
  9 16  1  0
 10 17  2  0
 11 18  1  0
 12 19  1  0
 13 20  2  0
 15 21  1  0
 16 22  2  0
 16 23  1  0
 19 24  1  0
 19 25  1  0
  7 11  1  0
 13 19  1  0
 17 22  1  0
 21 23  2  0
  6 26  1  0
  8 27  1  0
 10 28  1  0
 12 29  1  0
 14 30  1  0
 14 31  1  0
 14 32  1  0
 15 33  1  0
 17 34  1  0
 18 35  1  0
 18 36  1  0
 18 37  1  0
 21 38  1  0
 22 39  1  0
 23 40  1  0
 24 41  1  0
 24 42  1  0
 24 43  1  0
 25 44  1  0
 25 45  1  0
 25 46  1  0
M  END
> <Name>
CHEMBL1644754

> <IC50 nM>
13

> <Molecule_ChEMBL_ID>
CHEMBL1644754

> <Smiles>
Cc1cc(-c2cccc3cc[nH]c23)c(Cl)c2c1NC(C)(C)C(=O)C2C

$$$$
CHEMBL1644760
  SciTegic08162514323D

 48 51  0  0  1  0            999 V2000
    0.4980    2.7370   -0.0290 Cl  0  0
    0.3480    1.0180   -0.2070 C   0  0
    1.5240    0.2110   -0.2090 C   0  0
   -0.9390    0.3950   -0.3380 C   0  0
    2.8590    0.7970   -0.1410 C   0  0
    1.4320   -1.1930   -0.2730 C   0  0
   -1.0230   -1.0430   -0.3220 C   0  0
   -2.1870    1.2250   -0.4790 C   0  0  3  0  0  0
    3.6820    0.6230    1.0020 C   0  0
    3.3580    1.5590   -1.2320 C   0  0
    0.1720   -1.8220   -0.3140 C   0  0
   -2.2300   -1.6760   -0.3030 N   0  0
   -3.4360    0.3870   -0.8460 C   0  0  3  0  0  0
   -2.0510    2.3280   -1.5410 C   0  0
    3.4880   -0.0510    2.2030 N   0  0
    4.9360    1.1740    1.0640 C   0  0
    4.6580    2.1270   -1.1620 C   0  0
    0.1500   -3.2990   -0.3440 C   0  0
   -3.5060   -0.9530   -0.0900 C   0  0
   -4.6090    1.1470   -0.6050 O   0  0
    4.6640    0.1190    2.9730 C   0  0
    5.4610    1.9400   -0.0060 C   0  0
    5.5670    0.9010    2.2270 C   0  0
   -4.6600   -1.8120   -0.6310 C   0  0
   -3.6970   -0.7480    1.4200 C   0  0
    2.3260   -1.8010   -0.2870 H   0  0
   -2.3550    1.6960    0.4920 H   0  0
    2.7600    1.7130   -2.1190 H   0  0
   -2.2870   -2.6700   -0.4020 H   0  0
   -3.4200    0.1880   -1.9200 H   0  0
   -1.8570    3.2930   -1.0740 H   0  0
   -1.2360    2.0980   -2.2310 H   0  0
   -2.9670    2.4180   -2.1250 H   0  0
    2.6800   -0.5600    2.4750 H   0  0
    5.0370    2.7070   -1.9900 H   0  0
   -0.3930   -3.7560    0.4840 H   0  0
    1.1720   -3.6780   -0.3200 H   0  0
   -0.3110   -3.6390   -1.2720 H   0  0
   -5.2990    0.8070   -1.1950 H   0  0
    4.8050   -0.2970    3.9630 H   0  0
    6.4490    2.3730    0.0450 H   0  0
    6.5570    1.2110    2.5330 H   0  0
   -4.5780   -1.9720   -1.7050 H   0  0
   -5.6190   -1.3360   -0.4360 H   0  0
   -4.6700   -2.7910   -0.1480 H   0  0
   -2.8950   -0.1520    1.8540 H   0  0
   -3.7170   -1.7070    1.9390 H   0  0
   -4.6390   -0.2380    1.6230 H   0  0
  1  2  1  0
  2  3  2  0
  2  4  1  0
  3  5  1  0
  3  6  1  0
  4  7  2  0
  4  8  1  0
  5  9  2  0
  5 10  1  0
  6 11  2  0
  7 12  1  0
  8 13  1  0
  8 14  1  0
  9 15  1  0
  9 16  1  0
 10 17  2  0
 11 18  1  0
 12 19  1  0
 13 20  1  0
 15 21  1  0
 16 22  2  0
 16 23  1  0
 19 24  1  0
 19 25  1  0
  7 11  1  0
 13 19  1  0
 17 22  1  0
 21 23  2  0
  6 26  1  0
  8 27  1  0
 10 28  1  0
 12 29  1  0
 13 30  1  0
 14 31  1  0
 14 32  1  0
 14 33  1  0
 15 34  1  0
 17 35  1  0
 18 36  1  0
 18 37  1  0
 18 38  1  0
 20 39  1  0
 21 40  1  0
 22 41  1  0
 23 42  1  0
 24 43  1  0
 24 44  1  0
 24 45  1  0
 25 46  1  0
 25 47  1  0
 25 48  1  0
M  END
> <Name>
CHEMBL1644760

> <IC50 nM>
100

> <Molecule_ChEMBL_ID>
CHEMBL1644760

> <Smiles>
Cc1cc(-c2cccc3cc[nH]c23)c(Cl)c2c1NC(C)(C)C(O)C2C

$$$$
CHEMBL3261168
  SciTegic08162514323D

 51 53  0  0  1  0            999 V2000
   -0.7970   -2.3790   -0.3300 S   0  0
   -2.0140   -3.1680   -0.2580 O   0  0
   -0.0450   -2.5940   -1.5550 O   0  0
   -1.3070   -0.7150   -0.3690 N   0  0
    0.2110   -2.8070    1.0080 C   0  0
   -2.0450   -0.2540   -1.5310 C   0  0  2  0  0  0
    0.1330   -4.0980    1.5600 C   0  0
    1.1070   -1.8610    1.5430 C   0  0
   -2.1230    1.2710   -1.5470 C   0  0
   -3.4220   -0.9160   -1.5880 C   0  0
    0.9530   -4.4440    2.6500 C   0  0
   -0.8110   -5.1000    1.0000 C   0  0
    1.9240   -2.2110    2.6330 C   0  0
    1.1930   -0.4960    0.9650 C   0  0
   -0.8110    1.8140   -1.5610 O   0  0
    1.8480   -3.5020    3.1860 C   0  0
   -0.6800    3.1480   -1.5740 C   0  0
    2.7130   -3.8690    4.3380 C   0  0
    0.6000    3.7640   -1.5880 C   0  0
   -1.8440    3.9530   -1.5740 C   0  0
    0.7150    5.1930   -1.6020 C   0  0
    1.7850    2.9770   -1.5880 C   0  0
   -1.7360    5.3630   -1.5880 C   0  0
    1.9590    5.7990   -1.6130 N   0  0
   -0.4650    5.9800   -1.6020 C   0  0
    3.0470    3.6190   -1.6020 C   0  0
    3.1060    5.0330   -1.6150 C   0  0
   -1.8650   -0.5080    0.4710 H   0  0
   -1.4100   -0.6150   -2.3420 H   0  0
   -2.6350    1.6410   -0.6560 H   0  0
   -2.6470    1.6230   -2.4360 H   0  0
   -3.3280   -1.9860   -1.7770 H   0  0
   -3.9590   -0.7680   -0.6520 H   0  0
   -4.0230   -0.4880   -2.3890 H   0  0
    0.8950   -5.4360    3.0760 H   0  0
   -0.8110   -5.1580   -0.0880 H   0  0
   -1.8260   -4.8630    1.3200 H   0  0
   -0.5630   -6.0900    1.3870 H   0  0
    2.6130   -1.4880    3.0450 H   0  0
    1.1820   -0.4690   -0.1250 H   0  0
    2.1130   -0.0180    1.2990 H   0  0
    0.3570    0.1050    1.3200 H   0  0
    3.3710   -3.0700    4.6780 H   0  0
    3.3380   -4.7210    4.0640 H   0  0
    2.0900   -4.1700    5.1800 H   0  0
   -2.8200    3.4920   -1.5650 H   0  0
    1.7420    1.8960   -1.5780 H   0  0
   -2.6290    5.9710   -1.5880 H   0  0
   -0.4060    7.0610   -1.6110 H   0  0
    3.9570    3.0350   -1.6040 H   0  0
    4.0680    5.5230   -1.6250 H   0  0
  1  2  2  0
  1  3  2  0
  1  4  1  0
  1  5  1  0
  4  6  1  0
  5  7  2  0
  5  8  1  0
  6  9  1  0
  6 10  1  0
  7 11  1  0
  7 12  1  0
  8 13  2  0
  8 14  1  0
  9 15  1  0
 11 16  2  0
 15 17  1  0
 16 18  1  0
 17 19  2  0
 17 20  1  0
 19 21  1  0
 19 22  1  0
 20 23  2  0
 21 24  1  0
 21 25  2  0
 22 26  2  0
 24 27  2  0
 13 16  1  0
 23 25  1  0
 26 27  1  0
  4 28  1  0
  6 29  1  0
  9 30  1  0
  9 31  1  0
 10 32  1  0
 10 33  1  0
 10 34  1  0
 11 35  1  0
 12 36  1  0
 12 37  1  0
 12 38  1  0
 13 39  1  0
 14 40  1  0
 14 41  1  0
 14 42  1  0
 18 43  1  0
 18 44  1  0
 18 45  1  0
 20 46  1  0
 22 47  1  0
 23 48  1  0
 25 49  1  0
 26 50  1  0
 27 51  1  0
M  END
> <Name>
CHEMBL3261168

> <IC50 nM>
240

> <Molecule_ChEMBL_ID>
CHEMBL3261168

> <Smiles>
Cc1cc(C)c(S(=O)(=O)N[C@@H](C)COc2cccc3ncccc23)c(C)c1

$$$$
CHEMBL3605930
  SciTegic08162514323D

 38 40  0  0  0  0            999 V2000
    0.3590   -5.2760    2.6660 Cl  0  0
    1.0630   -4.2600    1.4780 C   0  0
    0.6640   -2.9120    1.3790 C   0  0
    2.0350   -4.7680    0.6000 C   0  0
    1.2380   -2.0760    0.4020 C   0  0
    2.6080   -3.9340   -0.3750 C   0  0
    2.2150   -2.5880   -0.4790 C   0  0
    0.8090   -0.6580    0.3120 C   0  0
    2.7640   -1.8220   -1.4020 O   0  0
   -0.4510   -0.1470    0.2750 C   0  0
    1.6410    0.4780    0.2460 C   0  0
    3.8790   -2.3360   -2.1150 C   0  0
   -0.4840    1.2270    0.1910 C   0  0
   -1.6500   -0.9060    0.3160 C   0  0
    0.8400    1.6410    0.1720 N   0  0
   -1.7300    1.9140    0.1420 C   0  0
   -2.8980   -0.2310    0.2690 C   0  0
   -1.6290    3.2520    0.0600 N   0  0
   -2.9430    1.1840    0.1820 C   0  0
   -2.9670    4.1640    0.0080 S   0  0
   -3.7130    3.7770   -1.1780 O   0  0
   -3.6970    3.9390    1.2420 O   0  0
   -2.5550    5.9000   -0.1110 C   0  0
   -0.0840   -2.5240    2.0550 H   0  0
    2.3520   -5.7990    0.6660 H   0  0
    3.3540   -4.3300   -1.0470 H   0  0
    2.7230    0.5020    0.2500 H   0  0
    3.5430   -3.1880   -2.7090 H   0  0
    4.3400   -1.5160   -2.6660 H   0  0
    4.6090   -2.7010   -1.3930 H   0  0
   -1.6310   -1.9860    0.3810 H   0  0
    1.1720    2.5760    0.1170 H   0  0
   -3.8180   -0.7990    0.3010 H   0  0
   -0.7280    3.6840    0.0310 H   0  0
   -3.8980    1.6910    0.1460 H   0  0
   -3.4180    6.5650   -0.1500 H   0  0
   -1.9610    6.0720   -1.0100 H   0  0
   -1.9490    6.1890    0.7480 H   0  0
  1  2  1  0
  2  3  2  0
  2  4  1  0
  3  5  1  0
  4  6  2  0
  5  7  2  0
  5  8  1  0
  7  9  1  0
  8 10  1  0
  8 11  2  0
  9 12  1  0
 10 13  1  0
 10 14  2  0
 11 15  1  0
 13 16  2  0
 14 17  1  0
 16 18  1  0
 16 19  1  0
 18 20  1  0
 20 21  2  0
 20 22  2  0
 20 23  1  0
  6  7  1  0
 13 15  1  0
 17 19  2  0
  3 24  1  0
  4 25  1  0
  6 26  1  0
 11 27  1  0
 12 28  1  0
 12 29  1  0
 12 30  1  0
 14 31  1  0
 15 32  1  0
 17 33  1  0
 18 34  1  0
 19 35  1  0
 23 36  1  0
 23 37  1  0
 23 38  1  0
M  END
> <Name>
CHEMBL3605930

> <IC50 nM>
143

> <Molecule_ChEMBL_ID>
CHEMBL3605930

> <Smiles>
COc1ccc(Cl)cc1-c1c[nH]c2c(NS(C)(=O)=O)cccc12

$$$$
CHEMBL3261418
  SciTegic08162514323D

 64 67  0  0  1  0            999 V2000
   -1.3160   -3.1880    1.5040 S   0  0
   -0.7480   -3.6800    2.7460 O   0  0
   -1.8160   -1.8280    1.6000 O   0  0
   -0.0020   -3.1350    0.3650 N   0  0
   -2.6290   -4.2210    1.0590 C   0  0
    1.2130   -2.4400    0.7560 C   0  0  2  0  0  0
   -2.6290   -5.5700    1.4550 C   0  0
   -3.6990   -3.7090    0.3010 C   0  0
    0.9260   -0.9570    0.9980 C   0  0
    2.3160   -2.6660   -0.2770 C   0  0
   -3.6970   -6.4080    1.0940 C   0  0
   -1.5000   -6.1170    2.2560 C   0  0
   -4.7680   -4.5490   -0.0590 C   0  0
   -3.7090   -2.2830   -0.1210 C   0  0
    0.3560   -0.3280   -0.2030 N   0  0
   -4.7680   -5.8990    0.3360 C   0  0
    0.2440    1.0120   -0.2730 C   0  0
   -5.8970   -6.7870   -0.0450 C   0  0
    1.4790    1.7380   -0.3810 C   0  0
   -0.9980    1.6970   -0.2440 C   0  0
    1.4020    3.1230   -0.4550 C   0  0
    2.7540    1.1760   -0.4200 C   0  0
   -1.0250    3.1130   -0.3220 C   0  0
    2.7050    3.4900   -0.5450 N   0  0
    0.1840    3.8440   -0.4300 C   0  0
    3.4690    2.3480   -0.5230 N   0  0
    3.1910    4.7560   -0.6430 C   0  0
    2.5760    5.6860   -1.5040 C   0  0
    4.3110    5.1450    0.1190 C   0  0
    3.0760    6.9960   -1.6070 C   0  0
    4.8110    6.4530    0.0160 C   0  0
    2.5000    7.8630   -2.4140 O   0  0
    4.1930    7.3770   -0.8440 C   0  0
    2.9900    9.1950   -2.4220 C   0  0
    0.2520   -4.0960    0.0880 H   0  0
    1.4530   -2.9430    1.6910 H   0  0
    0.2360   -0.8300    1.8320 H   0  0
    1.8380   -0.4300    1.2790 H   0  0
    3.2480   -2.1780    0.0080 H   0  0
    2.0200   -2.2740   -1.2500 H   0  0
    2.5200   -3.7310   -0.3960 H   0  0
   -3.6970   -7.4460    1.3990 H   0  0
   -0.5140   -5.8320    1.8930 H   0  0
   -1.5530   -7.2050    2.2620 H   0  0
   -1.5880   -5.7760    3.2870 H   0  0
   -5.5900   -4.1580   -0.6410 H   0  0
   -2.7600   -1.9300   -0.5250 H   0  0
   -3.9630   -1.6520    0.7310 H   0  0
   -4.4730   -2.1350   -0.8850 H   0  0
    0.0470   -0.8850   -0.9750 H   0  0
   -6.6740   -6.2970   -0.6330 H   0  0
   -6.3650   -7.1880    0.8560 H   0  0
   -5.5200   -7.6270   -0.6270 H   0  0
   -1.9280    1.1520   -0.1620 H   0  0
    3.1290    0.1600   -0.3830 H   0  0
   -1.9690    3.6370   -0.3010 H   0  0
    0.1700    4.9220   -0.4880 H   0  0
    1.7150    5.4040   -2.0960 H   0  0
    4.7970    4.4470    0.7850 H   0  0
    5.6680    6.7500    0.6000 H   0  0
    4.5800    8.3830   -0.9200 H   0  0
    2.4320    9.7620   -3.1680 H   0  0
    2.9570    9.5780   -1.4000 H   0  0
    4.0350    9.1720   -2.7340 H   0  0
  1  2  2  0
  1  3  2  0
  1  4  1  0
  1  5  1  0
  4  6  1  0
  5  7  2  0
  5  8  1  0
  6  9  1  0
  6 10  1  0
  7 11  1  0
  7 12  1  0
  8 13  2  0
  8 14  1  0
  9 15  1  0
 11 16  2  0
 15 17  1  0
 16 18  1  0
 17 19  2  0
 17 20  1  0
 19 21  1  0
 19 22  1  0
 20 23  2  0
 21 24  1  0
 21 25  2  0
 22 26  2  0
 24 27  1  0
 27 28  2  0
 27 29  1  0
 28 30  1  0
 29 31  2  0
 30 32  1  0
 30 33  2  0
 32 34  1  0
 13 16  1  0
 23 25  1  0
 24 26  1  0
 31 33  1  0
  4 35  1  0
  6 36  1  0
  9 37  1  0
  9 38  1  0
 10 39  1  0
 10 40  1  0
 10 41  1  0
 11 42  1  0
 12 43  1  0
 12 44  1  0
 12 45  1  0
 13 46  1  0
 14 47  1  0
 14 48  1  0
 14 49  1  0
 15 50  1  0
 18 51  1  0
 18 52  1  0
 18 53  1  0
 20 54  1  0
 22 55  1  0
 23 56  1  0
 25 57  1  0
 28 58  1  0
 29 59  1  0
 31 60  1  0
 33 61  1  0
 34 62  1  0
 34 63  1  0
 34 64  1  0
M  END
> <Name>
CHEMBL3261418

> <IC50 nM>
41

> <Molecule_ChEMBL_ID>
CHEMBL3261418

> <Smiles>
COc1cccc(-n2ncc3c(NC[C@H](C)NS(=O)(=O)c4c(C)cc(C)cc4C)cccc32)c1

$$$$
CHEMBL3261404
  SciTegic08162514323D

 58 61  0  0  1  0            999 V2000
   -1.2250   -1.4880   -0.7790 S   0  0
   -2.4260   -2.2970   -0.6780 O   0  0
   -0.4780   -1.7250   -2.0040 O   0  0
   -1.7660    0.1640   -0.8590 N   0  0
   -0.2130   -1.8570    0.5490 C   0  0
   -2.5230    0.5780   -2.0270 C   0  0  2  0  0  0
    0.4860   -0.9200    1.3280 C   0  0
    0.0550   -3.1500    1.0390 C   0  0
   -2.6110    2.1040   -2.0960 C   0  0
   -3.8960   -0.0920   -2.0390 C   0  0
    1.1430   -1.6580    2.2460 N   0  0
    0.5450    0.5900    1.2250 C   0  0
    0.8950   -2.9670    2.0840 N   0  0
   -0.4530   -4.4900    0.5510 C   0  0
   -1.3010    2.6500   -2.1500 O   0  0
    1.4590   -4.0370    2.9260 C   0  0
   -1.1780    3.9850   -2.2130 C   0  0
    2.3010   -3.5080    4.0820 C   0  0
    2.4670   -4.9220    2.1880 C   0  0
    0.1000    4.6040   -2.2710 C   0  0
   -2.3460    4.7850   -2.2250 C   0  0
    2.9770   -4.7850    4.5690 C   0  0
    3.3460   -5.5250    3.2850 C   0  0
    0.1930    6.0310   -2.3420 C   0  0
    1.2930    3.8300   -2.2600 C   0  0
   -2.2480    6.1950   -2.2910 C   0  0
    1.4770    6.6370   -2.4000 C   0  0
   -0.9820    6.8220   -2.3510 C   0  0
    2.5430    4.4940   -2.3180 C   0  0
    2.6270    5.8710   -2.3890 N   0  0
   -2.3200    0.3850   -0.0190 H   0  0
   -1.8980    0.1910   -2.8320 H   0  0
   -3.1110    2.5000   -1.2130 H   0  0
   -3.1480    2.4180   -2.9900 H   0  0
   -3.7990   -1.1680   -2.1830 H   0  0
   -4.4260    0.0960   -1.1050 H   0  0
   -4.5100    0.2970   -2.8530 H   0  0
    1.3520    1.0470    1.7970 H   0  0
   -0.3940    1.0140    1.5780 H   0  0
    0.6700    0.8790    0.1820 H   0  0
   -1.2320   -4.4260   -0.2090 H   0  0
   -0.8530   -5.0570    1.3930 H   0  0
    0.3750   -5.0610    0.1290 H   0  0
    0.6470   -4.6410    3.3070 H   0  0
    1.7030   -3.0450    4.8540 H   0  0
    3.0390   -2.7910    3.7460 H   0  0
    3.0840   -4.3380    1.5180 H   0  0
    1.9770   -5.6840    1.5960 H   0  0
   -3.3180    4.3180   -2.1800 H   0  0
    3.8380   -4.5820    5.1900 H   0  0
    2.2810   -5.3730    5.1530 H   0  0
    4.3890   -5.3850    3.0430 H   0  0
    3.1780   -6.5880    3.3930 H   0  0
    1.2660    2.7520   -2.2050 H   0  0
   -3.1460    6.7950   -2.2990 H   0  0
    1.5740    7.7110   -2.4550 H   0  0
   -0.9280    7.9010   -2.4040 H   0  0
    3.4530    3.9120   -2.3100 H   0  0
  1  2  2  0
  1  3  2  0
  1  4  1  0
  1  5  1  0
  4  6  1  0
  5  7  1  0
  5  8  2  0
  6  9  1  0
  6 10  1  0
  7 11  2  0
  7 12  1  0
  8 13  1  0
  8 14  1  0
  9 15  1  0
 13 16  1  0
 15 17  1  0
 16 18  1  0
 16 19  1  0
 17 20  2  0
 17 21  1  0
 18 22  1  0
 19 23  1  0
 20 24  1  0
 20 25  1  0
 21 26  2  0
 24 27  1  0
 24 28  2  0
 25 29  2  0
 27 30  2  0
 11 13  1  0
 22 23  1  0
 26 28  1  0
 29 30  1  0
  4 31  1  0
  6 32  1  0
  9 33  1  0
  9 34  1  0
 10 35  1  0
 10 36  1  0
 10 37  1  0
 12 38  1  0
 12 39  1  0
 12 40  1  0
 14 41  1  0
 14 42  1  0
 14 43  1  0
 16 44  1  0
 18 45  1  0
 18 46  1  0
 19 47  1  0
 19 48  1  0
 21 49  1  0
 22 50  1  0
 22 51  1  0
 23 52  1  0
 23 53  1  0
 25 54  1  0
 26 55  1  0
 27 56  1  0
 28 57  1  0
 29 58  1  0
M  END
> <Name>
CHEMBL3261404

> <IC50 nM>
32

> <Molecule_ChEMBL_ID>
CHEMBL3261404

> <Smiles>
Cc1nn(C2CCCC2)c(C)c1S(=O)(=O)N[C@@H](C)COc1cccc2cnccc12

$$$$
CHEMBL65657
  SciTegic08162514323D

 46 49  0  0  1  0            999 V2000
   -4.4450   -1.6350    0.6780 S   0  0
   -4.2440   -2.4710   -0.4920 O   0  0
   -4.0780   -2.2910    1.9200 O   0  0
   -3.4940   -0.3320    0.5180 N   0  0
   -6.1680   -1.1640    0.7620 C   0  0
   -2.1620   -0.4770    0.4590 C   0  0
   -1.3220    0.6540    0.3420 C   0  0
   -1.5820   -1.7640    0.5160 C   0  0
    0.0940    0.5160    0.2790 C   0  0
   -0.1800   -1.9180    0.4690 C   0  0
    0.6800   -0.7850    0.3810 C   0  0
    0.9830    1.7130    0.1390 C   0  0  1  0  0  0
    2.1620   -0.8990    0.3810 C   0  0
    2.2890    1.3960   -0.3610 O   0  0
    0.4180    2.7600   -0.7640 C   0  0
    2.9060    0.2420   -0.0390 C   0  0
    2.8810   -2.0740    0.7730 C   0  0
    0.3540    2.5350   -2.1510 C   0  0
   -0.0510    3.9730   -0.2290 C   0  0
    4.3150    0.1890   -0.1410 C   0  0
    2.2780   -3.1700    1.2540 O   0  0
    4.2930   -2.1110    0.6760 C   0  0
   -0.1780    3.5210   -3.0000 C   0  0
   -0.5820    4.9590   -1.0780 C   0  0
    5.0080   -0.9860    0.2130 C   0  0
    2.9790   -4.4020    1.1850 C   0  0
   -0.6440    4.7340   -2.4650 C   0  0
   -1.1480    5.6680   -3.2700 F   0  0
   -3.9000    0.5800    0.4590 H   0  0
   -6.8570   -2.0000    0.8710 H   0  0
   -6.4410   -0.6230   -0.1450 H   0  0
   -6.3200   -0.4940    1.6090 H   0  0
   -1.7660    1.6390    0.2990 H   0  0
   -2.2010   -2.6470    0.5960 H   0  0
    0.1880   -2.9320    0.4980 H   0  0
    1.1080    2.1500    1.1290 H   0  0
    0.7110    1.6050   -2.5680 H   0  0
   -0.0040    4.1520    0.8360 H   0  0
    4.8650    1.0510   -0.4860 H   0  0
    4.8300   -3.0040    0.9590 H   0  0
   -0.2240    3.3420   -4.0650 H   0  0
   -0.9390    5.8910   -0.6620 H   0  0
    6.0840   -1.0250    0.1330 H   0  0
    2.2850   -5.2030    1.4450 H   0  0
    3.4510   -4.4730    0.2050 H   0  0
    3.7700   -4.3890    1.9350 H   0  0
  1  2  2  0
  1  3  2  0
  1  4  1  0
  1  5  1  0
  4  6  1  0
  6  7  2  0
  6  8  1  0
  7  9  1  0
  8 10  2  0
  9 11  2  0
  9 12  1  0
 11 13  1  0
 12 14  1  0
 12 15  1  0
 13 16  2  0
 13 17  1  0
 15 18  2  0
 15 19  1  0
 16 20  1  0
 17 21  1  0
 17 22  2  0
 18 23  1  0
 19 24  2  0
 20 25  2  0
 21 26  1  0
 23 27  2  0
 27 28  1  0
 10 11  1  0
 14 16  1  0
 22 25  1  0
 24 27  1  0
  4 29  1  0
  5 30  1  0
  5 31  1  0
  5 32  1  0
  7 33  1  0
  8 34  1  0
 10 35  1  0
 12 36  1  0
 18 37  1  0
 19 38  1  0
 20 39  1  0
 22 40  1  0
 23 41  1  0
 24 42  1  0
 25 43  1  0
 26 44  1  0
 26 45  1  0
 26 46  1  0
M  END
> <Name>
CHEMBL65657

> <IC50 nM>
29

> <Molecule_ChEMBL_ID>
CHEMBL65657

> <Smiles>
COc1cccc2c1-c1ccc(NS(C)(=O)=O)cc1C(c1ccc(F)cc1)O2

$$$$
CHEMBL310570
  SciTegic08162514323D

 54 58  0  0  1  0            999 V2000
   -0.3200   -3.9810    2.9880 S   0  0
    0.9390   -3.0000    2.4020 C   0  0
   -0.5920   -4.6900    1.4690 C   0  0
    1.1660   -3.2050    1.0310 C   0  0
    0.2850   -4.1740    0.5020 C   0  0
    2.2210   -2.4790    0.2250 C   0  0  1  0  0  0
    2.0490   -2.7720   -1.1450 O   0  0
    2.1130   -0.9590    0.4080 C   0  0  2  0  0  0
    3.6290   -2.9160    0.6350 C   0  0
    0.8610   -0.3610   -0.2830 C   0  0  2  0  0  0
    3.4320   -0.2700   -0.0060 C   0  0
    0.7910    1.1430    0.0310 C   0  0
   -0.4240   -1.1410    0.1580 C   0  0
    1.0020   -0.4920   -1.8090 C   0  0
    3.2720    1.2110   -0.3950 C   0  0
   -0.3910    1.8030    0.0510 C   0  0
    2.0840    1.8830    0.3050 C   0  0
   -1.7050   -0.3570   -0.0960 C   0  0
   -1.6310    1.0250   -0.1150 C   0  0
   -2.9750   -0.8970   -0.2930 C   0  0
   -2.9300    1.3750   -0.3090 N   0  0
   -3.6930    0.2540   -0.4160 N   0  0
   -3.4060    2.6450   -0.3890 C   0  0
   -4.5840    3.0020    0.2990 C   0  0
   -2.7270    3.6070   -1.1600 C   0  0
   -5.0760    4.3140    0.2150 C   0  0
   -3.2230    4.9200   -1.2420 C   0  0
   -4.3970    5.2750   -0.5550 C   0  0
   -4.8630    6.5180   -0.6350 F   0  0
    1.4900   -2.3050    3.0240 H   0  0
   -1.3500   -5.4400    1.2850 H   0  0
    0.2850   -4.4860   -0.5330 H   0  0
    2.2680   -3.7090   -1.2660 H   0  0
    1.9900   -0.7870    1.4790 H   0  0
    3.6740   -3.9960    0.7680 H   0  0
    4.3570   -2.6190   -0.1190 H   0  0
    3.9160   -2.4510    1.5780 H   0  0
    4.1450   -0.3560    0.8150 H   0  0
    3.8850   -0.7950   -0.8500 H   0  0
   -0.4790   -2.1110   -0.3400 H   0  0
   -0.3810   -1.3480    1.2290 H   0  0
    2.0470   -0.5350   -2.1170 H   0  0
    0.5390    0.3550   -2.3120 H   0  0
    0.5120   -1.3980   -2.1640 H   0  0
    4.1910    1.7560   -0.1860 H   0  0
    3.1210    1.2830   -1.4730 H   0  0
   -0.4260    2.8750    0.1880 H   0  0
    2.0020    2.9180   -0.0310 H   0  0
    2.2560    1.9140    1.3830 H   0  0
   -3.3320   -1.9160   -0.3380 H   0  0
   -5.1210    2.2770    0.8950 H   0  0
   -1.8220    3.3540   -1.6950 H   0  0
   -5.9790    4.5840    0.7440 H   0  0
   -2.6970    5.6540   -1.8360 H   0  0
  1  2  1  0
  1  3  1  0
  2  4  2  0
  3  5  2  0
  4  6  1  0
  6  7  1  0
  6  8  1  0
  6  9  1  0
  8 10  1  0
  8 11  1  0
 10 12  1  0
 10 13  1  0
 10 14  1  0
 11 15  1  0
 12 16  2  0
 12 17  1  0
 13 18  1  0
 16 19  1  0
 18 20  1  0
 19 21  1  0
 20 22  2  0
 21 23  1  0
 23 24  2  0
 23 25  1  0
 24 26  1  0
 25 27  2  0
 26 28  2  0
 28 29  1  0
  4  5  1  0
 15 17  1  0
 18 19  2  0
 21 22  1  0
 27 28  1  0
  2 30  1  0
  3 31  1  0
  5 32  1  0
  7 33  1  0
  8 34  1  0
  9 35  1  0
  9 36  1  0
  9 37  1  0
 11 38  1  0
 11 39  1  0
 13 40  1  0
 13 41  1  0
 14 42  1  0
 14 43  1  0
 14 44  1  0
 15 45  1  0
 15 46  1  0
 16 47  1  0
 17 48  1  0
 17 49  1  0
 20 50  1  0
 24 51  1  0
 25 52  1  0
 26 53  1  0
 27 54  1  0
M  END
> <Name>
CHEMBL310570

> <IC50 nM>
0.8

> <Molecule_ChEMBL_ID>
CHEMBL310570

> <Smiles>
C[C@]12Cc3cnn(-c4ccc(F)cc4)c3C=C1CCC[C@@H]2[C@](C)(O)c1ccsc1

$$$$
CHEMBL375927
  SciTegic08162514323D

 50 51  0  0  1  0            999 V2000
   -2.0350   -2.7620    2.1230 O   0  0
   -0.7190   -2.7210    2.1230 C   0  0
   -2.6720   -3.7310    1.3030 C   0  0
    0.0290   -3.9120    2.1230 C   0  0
   -0.0570   -1.4790    2.1230 C   0  0
   -0.5820   -5.0800    2.1230 O   0  0
    1.4340   -3.8580    2.1230 C   0  0
    1.3480   -1.4260    2.1230 C   0  0
    2.0940   -2.6170    2.1230 C   0  0
    2.0430   -0.1120    2.1230 C   0  0
    2.4670    0.3010    0.7130 C   0  0  2  0  0  0
    1.2770    0.5350   -0.2170 C   0  0  1  0  0  0
    3.5100   -0.6430    0.1110 C   0  0
    0.3440    1.6370    0.2850 C   0  0
    1.6950    0.7340   -1.6740 C   0  0
   -0.8200    1.8240   -0.6210 C   0  0
   -0.8910    2.9590   -1.4490 C   0  0
   -1.8500    0.8690   -0.6520 C   0  0
   -1.9900    3.1400   -2.3070 C   0  0
   -2.9470    1.0490   -1.5100 C   0  0
   -2.0510    4.2050   -3.0800 O   0  0
   -3.0210    2.1810   -2.3380 C   0  0
   -1.0740    5.2190   -2.8970 C   0  0
   -4.0550    2.3440   -3.1390 O   0  0
   -3.6680   -3.4830    0.9350 H   0  0
   -2.7460   -4.6600    1.8670 H   0  0
   -2.0350   -3.9160    0.4370 H   0  0
   -0.6330   -0.5650    2.1230 H   0  0
   -0.0570   -5.8910    2.1230 H   0  0
    2.0100   -4.7720    2.1230 H   0  0
    3.1740   -2.5840    2.1230 H   0  0
    1.3930    0.6420    2.5660 H   0  0
    2.9060   -0.1580    2.7870 H   0  0
    2.8280    1.3280    0.7050 H   0  0
    0.5550   -0.2780   -0.1310 H   0  0
    3.9870   -0.2130   -0.7700 H   0  0
    3.0510   -1.5860   -0.1860 H   0  0
    4.2910   -0.8670    0.8360 H   0  0
   -0.0100    1.4140    1.2910 H   0  0
    0.8810    2.5800    0.3850 H   0  0
    0.8420    0.9470   -2.3170 H   0  0
    2.1900   -0.1580   -2.0590 H   0  0
    2.3950    1.5660   -1.7640 H   0  0
   -0.1010    3.6950   -1.4280 H   0  0
   -1.7990   -0.0060   -0.0180 H   0  0
   -3.7380    0.3120   -1.5290 H   0  0
   -1.2790    6.0230   -3.6040 H   0  0
   -1.0640    5.4960   -1.8420 H   0  0
   -0.0980    4.8010   -3.1410 H   0  0
   -4.7540    1.6780   -3.1490 H   0  0
  1  2  1  0
  1  3  1  0
  2  4  2  0
  2  5  1  0
  4  6  1  0
  4  7  1  0
  5  8  2  0
  7  9  2  0
  8 10  1  0
 10 11  1  0
 11 12  1  0
 11 13  1  0
 12 14  1  0
 12 15  1  0
 14 16  1  0
 16 17  2  0
 16 18  1  0
 17 19  1  0
 18 20  2  0
 19 21  1  0
 19 22  2  0
 21 23  1  0
 22 24  1  0
  8  9  1  0
 20 22  1  0
  3 25  1  0
  3 26  1  0
  3 27  1  0
  5 28  1  0
  6 29  1  0
  7 30  1  0
  9 31  1  0
 10 32  1  0
 10 33  1  0
 11 34  1  0
 12 35  1  0
 13 36  1  0
 13 37  1  0
 13 38  1  0
 14 39  1  0
 14 40  1  0
 15 41  1  0
 15 42  1  0
 15 43  1  0
 17 44  1  0
 18 45  1  0
 20 46  1  0
 23 47  1  0
 23 48  1  0
 23 49  1  0
 24 50  1  0
M  END
> <Name>
CHEMBL375927

> <IC50 nM>
35000

> <Molecule_ChEMBL_ID>
CHEMBL375927

> <Smiles>
COc1cc(C[C@@H](C)[C@H](C)Cc2ccc(O)c(OC)c2)ccc1O

$$$$
CHEMBL63431
  SciTegic08162514323D

 50 53  0  0  1  0            999 V2000
   -4.4770   -1.7130    1.0170 S   0  0
   -4.2700   -2.5490   -0.1520 O   0  0
   -4.1130   -2.3710    2.2620 O   0  0
   -3.5250   -0.4120    0.8590 N   0  0
   -6.1990   -1.2420    1.0940 C   0  0
   -2.1930   -0.5570    0.8030 C   0  0
   -1.3540    0.5760    0.6850 C   0  0
   -1.6110   -1.8420    0.8590 C   0  0
    0.0620    0.4360    0.6230 C   0  0
   -0.2090   -1.9980    0.8120 C   0  0
    0.6480   -0.8630    0.7250 C   0  0
    0.9510    1.6350    0.4820 C   0  0  1  0  0  0
    2.1310   -0.9790    0.7250 C   0  0
    2.2580    1.3180   -0.0180 O   0  0
    0.3870    2.6820   -0.4200 C   0  0
    2.8750    0.1640    0.3050 C   0  0
    2.8520   -2.1540    1.1170 C   0  0
    0.2580    2.4360   -1.8030 C   0  0
   -0.0180    3.9180    0.1150 C   0  0
    4.2830    0.1090    0.2030 C   0  0
    2.2460   -3.2480    1.5980 O   0  0
    4.2620   -2.1900    1.0190 C   0  0
    0.6330    1.2810   -2.3170 O   0  0
   -0.2750    3.4340   -2.6390 C   0  0
   -0.5490    4.9100   -0.7250 C   0  0
    4.9770   -1.0660    0.5570 C   0  0
    2.9410   -4.4840    1.5170 C   0  0
    0.3400    1.0350   -3.6840 C   0  0
   -0.6780    4.6680   -2.1020 C   0  0
   -3.9320    0.5000    0.8070 H   0  0
   -6.8890   -2.0800    1.2010 H   0  0
   -6.4690   -0.7030    0.1870 H   0  0
   -6.3560   -0.5740    1.9390 H   0  0
   -1.7970    1.5610    0.6420 H   0  0
   -2.2320   -2.7250    0.9390 H   0  0
    0.1560   -3.0100    0.8420 H   0  0
    1.0760    2.0720    1.4730 H   0  0
    0.0800    4.1090    1.1740 H   0  0
    4.8340    0.9730   -0.1430 H   0  0
    4.7990   -3.0820    1.3030 H   0  0
   -0.3770    3.2500   -3.6990 H   0  0
   -0.8570    5.8590   -0.3110 H   0  0
    6.0530   -1.1060    0.4760 H   0  0
    2.3520   -5.3870    1.6700 H   0  0
    3.7380   -4.4770    2.2640 H   0  0
    3.4080   -4.5510    0.5350 H   0  0
    0.7110    0.0430   -3.9400 H   0  0
   -0.7270    1.2050   -3.8400 H   0  0
    0.8850    1.7600   -4.2870 H   0  0
   -1.0880    5.4300   -2.7500 H   0  0
  1  2  2  0
  1  3  2  0
  1  4  1  0
  1  5  1  0
  4  6  1  0
  6  7  2  0
  6  8  1  0
  7  9  1  0
  8 10  2  0
  9 11  2  0
  9 12  1  0
 11 13  1  0
 12 14  1  0
 12 15  1  0
 13 16  2  0
 13 17  1  0
 15 18  2  0
 15 19  1  0
 16 20  1  0
 17 21  1  0
 17 22  2  0
 18 23  1  0
 18 24  1  0
 19 25  2  0
 20 26  2  0
 21 27  1  0
 23 28  1  0
 24 29  2  0
 10 11  1  0
 14 16  1  0
 22 26  1  0
 25 29  1  0
  4 30  1  0
  5 31  1  0
  5 32  1  0
  5 33  1  0
  7 34  1  0
  8 35  1  0
 10 36  1  0
 12 37  1  0
 19 38  1  0
 20 39  1  0
 22 40  1  0
 24 41  1  0
 25 42  1  0
 26 43  1  0
 27 44  1  0
 27 45  1  0
 27 46  1  0
 28 47  1  0
 28 48  1  0
 28 49  1  0
 29 50  1  0
M  END
> <Name>
CHEMBL63431

> <IC50 nM>
812

> <Molecule_ChEMBL_ID>
CHEMBL63431

> <Smiles>
COc1ccccc1C1Oc2cccc(OC)c2-c2ccc(NS(C)(=O)=O)cc21

$$$$
CHEMBL1684346
  SciTegic08162514323D

 59 63  0  0  1  0            999 V2000
    1.1970    1.4920    1.3030 F   0  0
    1.2640    0.1580    1.3140 C   0  0
    2.5210   -0.4960    1.2730 C   0  0
    0.0620   -0.6040    1.3710 C   0  0
    2.5900   -1.9100    1.2890 C   0  0
    3.7480    0.2890    1.2130 C   0  0
    0.1310   -2.0310    1.3870 C   0  0
   -1.2540    0.0960    1.4180 C   0  0  1  0  0  0
    3.7620   -2.5470    1.2520 F   0  0
    1.4000   -2.6700    1.3460 C   0  0
    4.6130    0.2110    0.0920 C   0  0
    4.0940    1.1480    2.2890 C   0  0
   -0.9920   -2.7970    1.4370 N   0  0
   -2.3890   -0.8050    0.8910 C   0  0  2  0  0  0
   -1.5370    0.6020    2.8380 C   0  0
    4.5590   -0.5160   -1.0900 N   0  0
    5.7690    0.9510    0.0390 C   0  0
    5.2910    1.9120    2.2270 C   0  0
   -2.3610   -2.2170    1.5200 C   0  0
   -2.2620   -0.9140   -0.5230 O   0  0
    5.7130   -0.1860   -1.8420 C   0  0
    6.1430    1.8180    1.0960 C   0  0
    6.4630    0.7460   -1.1020 C   0  0
   -3.3420   -3.1390    0.7850 C   0  0
   -2.7700   -2.1580    2.9960 C   0  0
   -2.6680    0.1840   -1.1560 C   0  0
   -3.1540    1.1410   -0.5980 O   0  0
   -2.5060    0.1860   -2.5120 N   0  0
   -2.8950    1.2730   -3.2480 C   0  0
   -3.5350    1.0940   -4.4880 C   0  0
   -2.6560    2.5740   -2.7660 C   0  0
   -3.9360    2.2110   -5.2420 C   0  0
   -3.0570    3.6900   -3.5220 C   0  0
   -3.6960    3.5080   -4.7600 C   0  0
   -1.2130    0.9690    0.7680 H   0  0
    1.4730   -3.7480    1.3570 H   0  0
    3.4570    1.2320    3.1580 H   0  0
   -0.9160   -3.7970    1.4260 H   0  0
   -3.3540   -0.3300    1.0780 H   0  0
   -1.1470    1.6110    2.9710 H   0  0
   -2.6100    0.6050    3.0370 H   0  0
   -1.0630   -0.0410    3.5780 H   0  0
    3.8440   -1.1500   -1.3630 H   0  0
    5.5550    2.5660    3.0450 H   0  0
    5.9390   -0.6020   -2.8150 H   0  0
    7.0530    2.3980    1.0510 H   0  0
    7.4000    1.1990   -1.3980 H   0  0
   -3.0780   -3.2600   -0.2640 H   0  0
   -4.3560   -2.7360    0.8300 H   0  0
   -3.3580   -4.1290    1.2420 H   0  0
   -1.9490   -1.8280    3.6330 H   0  0
   -3.0900   -3.1390    3.3460 H   0  0
   -3.6000   -1.4670    3.1390 H   0  0
   -2.1020   -0.6090   -2.9670 H   0  0
   -3.7290    0.1020   -4.8770 H   0  0
   -2.1660    2.7340   -1.8150 H   0  0
   -4.4260    2.0700   -6.1950 H   0  0
   -2.8710    4.6880   -3.1500 H   0  0
   -4.0020    4.3650   -5.3400 H   0  0
  1  2  1  0
  2  3  2  0
  2  4  1  0
  3  5  1  0
  3  6  1  0
  4  7  2  0
  4  8  1  0
  5  9  1  0
  5 10  2  0
  6 11  2  0
  6 12  1  0
  7 13  1  0
  8 14  1  0
  8 15  1  0
 11 16  1  0
 11 17  1  0
 12 18  2  0
 13 19  1  0
 14 20  1  0
 16 21  1  0
 17 22  2  0
 17 23  1  0
 19 24  1  0
 19 25  1  0
 20 26  1  0
 26 27  2  0
 26 28  1  0
 28 29  1  0
 29 30  2  0
 29 31  1  0
 30 32  1  0
 31 33  2  0
 32 34  2  0
  7 10  1  0
 14 19  1  0
 18 22  1  0
 21 23  2  0
 33 34  1  0
  8 35  1  0
 10 36  1  0
 12 37  1  0
 13 38  1  0
 14 39  1  0
 15 40  1  0
 15 41  1  0
 15 42  1  0
 16 43  1  0
 18 44  1  0
 21 45  1  0
 22 46  1  0
 23 47  1  0
 24 48  1  0
 24 49  1  0
 24 50  1  0
 25 51  1  0
 25 52  1  0
 25 53  1  0
 28 54  1  0
 30 55  1  0
 31 56  1  0
 32 57  1  0
 33 58  1  0
 34 59  1  0
M  END
> <Name>
CHEMBL1684346

> <IC50 nM>
40

> <Molecule_ChEMBL_ID>
CHEMBL1684346

> <Smiles>
C[C@H]1c2c(cc(F)c(-c3cccc4cc[nH]c34)c2F)NC(C)(C)[C@@H]1OC(=O)Nc1ccccc1

$$$$
CHEMBL3421873
  SciTegic08162514323D

 55 58  0  0  1  0            999 V2000
   -6.4980   -1.5450    0.4940 O   0  0
   -5.1950   -1.3070    0.2890 C   0  0
   -4.7460    0.0120    0.0510 C   0  0
   -4.2710   -2.3710    0.3070 C   0  0
   -3.3710    0.2770   -0.1720 C   0  0
   -2.9000   -2.1190    0.0860 C   0  0
   -2.4260   -0.7990   -0.1520 C   0  0
   -2.9550    1.6840   -0.4160 C   0  0
   -0.9610   -0.5740   -0.4000 C   0  0  1  0  0  0
   -1.5570    1.8180   -1.0290 C   0  0
   -0.5660    0.9220   -0.2770 C   0  0  2  0  0  0
   -0.0620   -1.4040    0.5780 C   0  0
   -0.7110   -1.0330   -1.8480 C   0  0
    0.9000    1.1890   -0.6930 C   0  0
    1.3160   -0.7620    0.9400 C   0  0  2  0  0  0
   -1.9940   -1.0980   -2.6760 C   0  0
    1.9060    0.0860   -0.2400 C   0  0  1  0  0  0
    2.1970   -1.8200    1.2890 O   0  0
    1.1880    0.0720    2.1970 C   0  0
    2.1350   -0.7720   -1.3470 O   0  0
    3.2340    0.6910    0.0900 C   0  0
    2.2600    0.2010    2.9940 C   0  0
    4.4180    0.0980   -0.3870 C   0  0
    3.3030    1.8550    0.8770 C   0  0
    5.6640    0.6660   -0.0760 C   0  0
    4.5510    2.4240    1.1860 C   0  0
    5.7310    1.8300    0.7090 C   0  0
   -7.1230   -0.8070    0.4790 H   0  0
   -5.4630    0.8200    0.0390 H   0  0
   -4.6110   -3.3810    0.4870 H   0  0
   -2.2130   -2.9530    0.1000 H   0  0
   -3.6780    2.1820   -1.0660 H   0  0
   -2.9800    2.2110    0.5370 H   0  0
   -1.2380    2.8590   -0.9820 H   0  0
   -1.5800    1.5510   -2.0880 H   0  0
   -0.6520    1.2010    0.7740 H   0  0
   -0.5920   -1.6060    1.5120 H   0  0
    0.0880   -2.3930    0.1370 H   0  0
    0.0310   -0.3970   -2.3320 H   0  0
   -0.1930   -1.9940   -1.8630 H   0  0
    0.9550    1.3460   -1.7730 H   0  0
    1.1720    2.1580   -0.2650 H   0  0
   -1.7640   -1.2250   -3.7340 H   0  0
   -2.6230   -1.9220   -2.3480 H   0  0
   -2.5660   -0.1760   -2.5680 H   0  0
    1.7250   -2.3890    1.9180 H   0  0
    0.2990    0.5920    2.5300 H   0  0
    2.3090   -1.6560   -0.9940 H   0  0
    2.3050    0.7030    3.9490 H   0  0
    3.1680   -0.2560    2.6250 H   0  0
    4.3730   -0.7970   -0.9900 H   0  0
    2.3990    2.3160    1.2460 H   0  0
    6.5720    0.2090   -0.4430 H   0  0
    4.6020    3.3160    1.7910 H   0  0
    6.6900    2.2660    0.9470 H   0  0
  1  2  1  0
  2  3  2  0
  2  4  1  0
  3  5  1  0
  4  6  2  0
  5  7  2  0
  5  8  1  0
  7  9  1  0
  8 10  1  0
  9 11  1  0
  9 12  1  0
  9 13  1  0
 11 14  1  0
 12 15  1  0
 13 16  1  0
 14 17  1  0
 15 18  1  0
 15 19  1  0
 17 20  1  0
 17 21  1  0
 19 22  2  0
 21 23  2  0
 21 24  1  0
 23 25  1  0
 24 26  2  0
 25 27  2  0
  6  7  1  0
 10 11  1  0
 15 17  1  0
 26 27  1  0
  1 28  1  0
  3 29  1  0
  4 30  1  0
  6 31  1  0
  8 32  1  0
  8 33  1  0
 10 34  1  0
 10 35  1  0
 11 36  1  0
 12 37  1  0
 12 38  1  0
 13 39  1  0
 13 40  1  0
 14 41  1  0
 14 42  1  0
 16 43  1  0
 16 44  1  0
 16 45  1  0
 18 46  1  0
 19 47  1  0
 20 48  1  0
 22 49  1  0
 22 50  1  0
 23 51  1  0
 24 52  1  0
 25 53  1  0
 26 54  1  0
 27 55  1  0
M  END
> <Name>
CHEMBL3421873

> <IC50 nM>
5.2

> <Molecule_ChEMBL_ID>
CHEMBL3421873

> <Smiles>
C=C[C@@]1(O)C[C@@]2(CC)c3ccc(O)cc3CC[C@@H]2C[C@@]1(O)c1ccccc1

$$$$
CHEMBL5267245
  SciTegic08162514323D

 46 48  0  0  1  0            999 V2000
   -0.0410   -0.2690    4.2580 S   0  0
   -0.4260   -1.7130    3.4490 C   0  0
    0.0390   -1.0390    5.7720 C   0  0
   -0.4960   -2.8010    4.3340 C   0  0
   -0.6470   -1.7300    1.9530 C   0  0  2  0  0  0
   -0.2290   -2.4140    5.6640 C   0  0
    0.6290   -1.2640    1.2580 C   0  0
   -1.8560   -0.8610    1.6310 C   0  0
    1.8480   -2.0160    1.4550 C   0  0
    0.6290   -0.1600    0.4690 C   0  0
   -1.7310    0.2170    0.8240 C   0  0
   -3.1510   -1.2320    2.2270 C   0  0
    2.8500   -2.6350    1.6210 C   0  0
    2.0430    0.3730   -0.2930 S   0  0
   -0.5250    0.5610    0.2600 N   0  0
   -2.9340    1.0800    0.5200 C   0  0
   -3.8610   -2.0470    1.6860 O   0  0
   -3.5670   -0.5740    3.5160 C   0  0
    1.4430    1.0060   -1.8100 C   0  0
    2.5570    1.0140   -2.8240 C   0  0
    3.6620    0.6210   -2.5370 O   0  0
    2.2540    1.5200   -4.1970 C   0  0
    3.2620    1.5470   -5.1780 C   0  0
    0.9590    1.9730   -4.5100 C   0  0
    2.9770    2.0240   -6.4690 C   0  0
    0.6740    2.4490   -5.8030 C   0  0
    1.6820    2.4750   -6.7810 C   0  0
    0.2690   -0.5230    6.6950 H   0  0
   -0.7250   -3.8140    4.0330 H   0  0
   -0.8610   -2.7600    1.6450 H   0  0
   -0.2330   -3.0960    6.5040 H   0  0
    3.7380   -3.1860    1.7660 H   0  0
   -0.4810    1.3690   -0.3280 H   0  0
   -3.5720    1.2580    1.3850 H   0  0
   -3.5430    0.6090   -0.2520 H   0  0
   -2.6080    2.0490    0.1430 H   0  0
   -3.0960   -1.0820    4.3580 H   0  0
   -3.3110    0.4840    3.4900 H   0  0
   -4.6470   -0.6540    3.6410 H   0  0
    1.0720    2.0200   -1.6600 H   0  0
    0.6230    0.3830   -2.1660 H   0  0
    4.2600    1.2010   -4.9450 H   0  0
    0.1760    1.9570   -3.7660 H   0  0
    3.7520    2.0430   -7.2210 H   0  0
   -0.3200    2.7970   -6.0430 H   0  0
    1.4630    2.8420   -7.7730 H   0  0
  1  2  1  0
  1  3  1  0
  2  4  2  0
  5  2  1  0
  3  6  2  0
  5  7  1  0
  5  8  1  0
  7  9  1  0
  7 10  2  0
  8 11  2  0
  8 12  1  0
  9 13  3  0
 10 14  1  0
 10 15  1  0
 11 16  1  0
 12 17  2  0
 12 18  1  0
 14 19  1  0
 19 20  1  0
 20 21  2  0
 20 22  1  0
 22 23  2  0
 22 24  1  0
 23 25  1  0
 24 26  2  0
 25 27  2  0
  4  6  1  0
 11 15  1  0
 26 27  1  0
  3 28  1  0
  4 29  1  0
  5 30  1  0
  6 31  1  0
 13 32  1  0
 15 33  1  0
 16 34  1  0
 16 35  1  0
 16 36  1  0
 18 37  1  0
 18 38  1  0
 18 39  1  0
 19 40  1  0
 19 41  1  0
 23 42  1  0
 24 43  1  0
 25 44  1  0
 26 45  1  0
 27 46  1  0
M  END
> <Name>
CHEMBL5267245

> <IC50 nM>
1860

> <Molecule_ChEMBL_ID>
CHEMBL5267245

> <Smiles>
C#CC1=C(SCC(=O)c2ccccc2)NC(C)=C(C(C)=O)C1c1cccs1

$$$$
CHEMBL3932081
  SciTegic08162514323D

 59 62  0  0  1  0            999 V2000
   -0.2420    0.8940   -5.0810 S   0  0
    0.1340    2.2890   -4.9360 O   0  0
    0.8120    0.0730   -5.6510 O   0  0
   -0.4950    0.2950   -3.4670 N   0  0
   -1.6860    0.7900   -6.1300 C   0  0
    0.6650    0.1540   -2.6020 C   0  0  2  0  0  0
   -1.3560    1.2720   -7.5440 C   0  0
   -2.8570    1.5500   -5.5060 C   0  0
    0.2350   -0.2560   -1.1930 C   0  0  2  0  0  0
    1.5020    1.4330   -2.6160 C   0  0
    1.3770   -0.3250   -0.3510 O   0  0
   -0.4610   -1.5690   -1.1930 C   0  0
    1.2000   -0.1430    0.9650 C   0  0
   -1.8660   -1.6210   -1.1930 C   0  0
    0.2850   -2.7610   -1.1930 C   0  0
   -0.1010   -0.2430    1.5240 C   0  0
    2.3160    0.1490    1.7950 C   0  0
   -2.5240   -2.8630   -1.1930 C   0  0
   -0.3730   -4.0030   -1.1930 C   0  0
   -0.2750   -0.0480    2.9190 C   0  0
    2.1380    0.3430    3.1870 C   0  0
   -1.7780   -4.0540   -1.1930 C   0  0
    0.8260    0.2350    3.7050 C   0  0
   -1.5120   -0.1310    3.5350 C   0  0
    0.2770    0.3510    4.9400 N   0  0
   -1.0780    0.1350    4.8180 N   0  0
    0.9290    0.6290    6.1000 C   0  0
    0.6070   -0.0730    7.2770 C   0  0
    1.9280    1.6210    6.1280 C   0  0
    1.2820    0.2160    8.4760 C   0  0
    2.6020    1.9080    7.3280 C   0  0
    2.2790    1.2060    8.5020 C   0  0
    2.9170    1.4780    9.6380 F   0  0
   -0.9770   -0.6140   -3.5090 H   0  0
   -1.8750   -0.2830   -6.1240 H   0  0
    1.1970   -0.6600   -3.0940 H   0  0
   -2.2040    1.1570   -8.2200 H   0  0
   -0.5210    0.7080   -7.9580 H   0  0
   -1.0770    2.3250   -7.5360 H   0  0
   -3.7540    1.4430   -6.1160 H   0  0
   -3.0640    1.1800   -4.5020 H   0  0
   -2.6300    2.6130   -5.4300 H   0  0
   -0.4330    0.5100   -0.7990 H   0  0
    1.9520    1.6140   -3.5920 H   0  0
    2.3060    1.3750   -1.8830 H   0  0
    0.8870    2.2980   -2.3670 H   0  0
   -2.4460   -0.7090   -1.1930 H   0  0
    1.3650   -2.7290   -1.1930 H   0  0
   -0.9440   -0.4660    0.8840 H   0  0
    3.3040    0.2240    1.3650 H   0  0
   -3.6040   -2.9020   -1.1930 H   0  0
    0.2000   -4.9180   -1.1930 H   0  0
    2.9780    0.5660    3.8280 H   0  0
   -2.2840   -5.0090   -1.1930 H   0  0
   -2.5160   -0.3320    3.1840 H   0  0
   -0.1570   -0.8380    7.2770 H   0  0
    2.1910    2.1720    5.2350 H   0  0
    1.0310   -0.3270    9.3760 H   0  0
    3.3680    2.6700    7.3440 H   0  0
  1  2  2  0
  1  3  2  0
  1  4  1  0
  1  5  1  0
  4  6  1  0
  5  7  1  0
  5  8  1  0
  6  9  1  0
  6 10  1  0
  9 11  1  0
  9 12  1  0
 11 13  1  0
 12 14  2  0
 12 15  1  0
 13 16  2  0
 13 17  1  0
 14 18  1  0
 15 19  2  0
 16 20  1  0
 17 21  2  0
 18 22  2  0
 20 23  2  0
 20 24  1  0
 23 25  1  0
 24 26  2  0
 25 27  1  0
 27 28  2  0
 27 29  1  0
 28 30  1  0
 29 31  2  0
 30 32  2  0
 32 33  1  0
 19 22  1  0
 21 23  1  0
 25 26  1  0
 31 32  1  0
  4 34  1  0
  5 35  1  0
  6 36  1  0
  7 37  1  0
  7 38  1  0
  7 39  1  0
  8 40  1  0
  8 41  1  0
  8 42  1  0
  9 43  1  0
 10 44  1  0
 10 45  1  0
 10 46  1  0
 14 47  1  0
 15 48  1  0
 16 49  1  0
 17 50  1  0
 18 51  1  0
 19 52  1  0
 21 53  1  0
 22 54  1  0
 24 55  1  0
 28 56  1  0
 29 57  1  0
 30 58  1  0
 31 59  1  0
M  END
> <Name>
CHEMBL3932081

> <IC50 nM>
2.8

> <Molecule_ChEMBL_ID>
CHEMBL3932081

> <Smiles>
CC(C)S(=O)(=O)N[C@@H](C)[C@H](Oc1ccc2c(cnn2-c2ccc(F)cc2)c1)c1ccccc1

$$$$
CHEMBL3923131
  SciTegic08162514323D

 53 56  0  0  1  0            999 V2000
   -5.4650   -2.4020    0.8630 S   0  0
   -5.9570   -3.1020   -0.3110 O   0  0
   -4.8990   -3.2910    1.8630 O   0  0
   -4.1510   -1.4060    0.3110 N   0  0
   -6.8130   -1.4880    1.6000 C   0  0
   -2.9550   -2.0660   -0.1860 C   0  0  2  0  0  0
   -1.7890   -1.0780   -0.2620 C   0  0  2  0  0  0
   -3.2390   -2.7480   -1.5250 C   0  0
   -0.6390   -1.7420   -0.7600 O   0  0
   -1.4870   -0.4860    1.0660 C   0  0
    0.5000   -1.0410   -0.8610 C   0  0
   -1.8950    0.8260    1.3630 C   0  0
   -0.7890   -1.2400    2.0290 C   0  0
    1.7480   -1.7170   -0.8910 C   0  0
    0.4510    0.3770   -0.9390 C   0  0
   -1.6080    1.3850    2.6210 C   0  0
   -0.5020   -0.6800    3.2870 C   0  0
    2.9450   -0.9610   -1.0000 C   0  0
    1.6480    1.1270   -1.0470 C   0  0
   -0.9100    0.6310    3.5820 C   0  0
    2.8710    0.4180   -1.0720 C   0  0
    4.1970   -1.5510   -1.0350 C   0  0
    4.1780    0.7710   -1.1640 N   0  0
    4.9280   -0.3850   -1.1390 N   0  0
    4.6760    2.0310   -1.2600 C   0  0
    5.7230    2.3110   -2.1600 C   0  0
    4.1460    3.0640   -0.4630 C   0  0
    6.2360    3.6150   -2.2600 C   0  0
    4.6620    4.3670   -0.5640 C   0  0
    5.7070    4.6450   -1.4630 C   0  0
    6.1950    5.8790   -1.5570 F   0  0
   -4.4900   -0.7620   -0.4180 H   0  0
   -7.6390   -2.1090    1.9470 H   0  0
   -7.2110   -0.7790    0.8730 H   0  0
   -6.4420   -0.9180    2.4530 H   0  0
   -2.7070   -2.9040    0.4630 H   0  0
   -2.0550   -0.2850   -0.9610 H   0  0
   -3.9490   -3.5650   -1.3980 H   0  0
   -3.6390   -2.0350   -2.2440 H   0  0
   -2.3220   -3.1660   -1.9450 H   0  0
   -2.4320    1.4080    0.6290 H   0  0
   -0.4710   -2.2480    1.8090 H   0  0
    1.7750   -2.7950   -0.8320 H   0  0
   -0.5020    0.8870   -0.9160 H   0  0
   -1.9220    2.3930    2.8500 H   0  0
    0.0350   -1.2580    4.0250 H   0  0
    1.6250    2.2050   -1.1050 H   0  0
   -0.6900    1.0610    4.5490 H   0  0
    4.5490   -2.5720   -0.9960 H   0  0
    6.1420    1.5330   -2.7830 H   0  0
    3.3420    2.8710    0.2340 H   0  0
    7.0390    3.8220   -2.9510 H   0  0
    4.2520    5.1560    0.0510 H   0  0
  1  2  2  0
  1  3  2  0
  1  4  1  0
  1  5  1  0
  4  6  1  0
  6  7  1  0
  6  8  1  0
  7  9  1  0
  7 10  1  0
  9 11  1  0
 10 12  2  0
 10 13  1  0
 11 14  2  0
 11 15  1  0
 12 16  1  0
 13 17  2  0
 14 18  1  0
 15 19  2  0
 16 20  2  0
 18 21  2  0
 18 22  1  0
 21 23  1  0
 22 24  2  0
 23 25  1  0
 25 26  2  0
 25 27  1  0
 26 28  1  0
 27 29  2  0
 28 30  2  0
 30 31  1  0
 17 20  1  0
 19 21  1  0
 23 24  1  0
 29 30  1  0
  4 32  1  0
  5 33  1  0
  5 34  1  0
  5 35  1  0
  6 36  1  0
  7 37  1  0
  8 38  1  0
  8 39  1  0
  8 40  1  0
 12 41  1  0
 13 42  1  0
 14 43  1  0
 15 44  1  0
 16 45  1  0
 17 46  1  0
 19 47  1  0
 20 48  1  0
 22 49  1  0
 26 50  1  0
 27 51  1  0
 28 52  1  0
 29 53  1  0
M  END
> <Name>
CHEMBL3923131

> <IC50 nM>
7.4

> <Molecule_ChEMBL_ID>
CHEMBL3923131

> <Smiles>
C[C@H](NS(C)(=O)=O)[C@H](Oc1ccc2c(cnn2-c2ccc(F)cc2)c1)c1ccccc1

$$$$
CHEMBL1684348
  SciTegic08162514323D

 62 66  0  0  1  0            999 V2000
    0.9770    2.2170    1.4380 F   0  0
    1.0410    0.8850    1.4490 C   0  0
    2.2990    0.2290    1.4080 C   0  0
   -0.1580    0.1210    1.5080 C   0  0
    2.3690   -1.1860    1.4240 C   0  0
    3.5250    1.0140    1.3480 C   0  0
   -0.0900   -1.3070    1.5220 C   0  0
   -1.4750    0.8200    1.5530 C   0  0  1  0  0  0
    3.5410   -1.8220    1.3890 F   0  0
    1.1780   -1.9430    1.4800 C   0  0
    4.3910    0.9390    0.2270 C   0  0
    3.8730    1.8710    2.4260 C   0  0
   -1.2130   -2.0720    1.5720 N   0  0
   -2.6110   -0.0780    1.0250 C   0  0  2  0  0  0
   -1.7580    1.3260    2.9730 C   0  0
    4.3320    0.2150   -0.9570 N   0  0
    5.5470    1.6800    0.1720 C   0  0
    5.0700    2.6350    2.3630 C   0  0
   -2.5820   -1.4900    1.6540 C   0  0
   -2.4820   -0.1880   -0.3890 O   0  0
    5.4860    0.5470   -1.7110 C   0  0
    5.9220    2.5430    1.2300 C   0  0
    6.2380    1.4790   -0.9710 C   0  0
   -3.5650   -2.4140    0.9220 C   0  0
   -2.9920   -1.4320    3.1310 C   0  0
   -2.8750    0.9140   -1.0200 C   0  0
   -3.3400    1.8810   -0.4610 O   0  0
   -2.7250    0.9100   -2.3770 N   0  0
   -2.1230   -0.1460   -3.0080 C   0  0
   -3.2150    2.0530   -3.1620 C   0  0
   -0.9570   -0.7230   -2.4650 C   0  0
   -2.6680   -0.6600   -4.2010 C   0  0
   -0.3420   -1.8070   -3.1130 C   0  0
   -2.0490   -1.7440   -4.8480 C   0  0
   -0.8870   -2.3180   -4.3030 C   0  0
   -1.4340    1.6950    0.9020 H   0  0
    1.2500   -3.0230    1.4920 H   0  0
    3.2380    1.9530    3.2970 H   0  0
   -1.1370   -3.0700    1.5610 H   0  0
   -3.5740    0.3960    1.2130 H   0  0
   -1.3710    2.3380    3.1060 H   0  0
   -2.8300    1.3260    3.1740 H   0  0
   -1.2790    0.6880    3.7130 H   0  0
    3.6190   -0.4200   -1.2320 H   0  0
    5.3360    3.2870    3.1840 H   0  0
    5.7130    0.1330   -2.6840 H   0  0
    6.8320    3.1230    1.1880 H   0  0
    7.1760    1.9320   -1.2660 H   0  0
   -3.2990   -2.5350   -0.1290 H   0  0
   -4.5760   -2.0120    0.9650 H   0  0
   -3.5780   -3.4020    1.3790 H   0  0
   -2.1700   -1.1050    3.7680 H   0  0
   -3.3130   -2.4140    3.4810 H   0  0
   -3.8200   -0.7400    3.2730 H   0  0
   -3.1130    3.0200   -2.6720 H   0  0
   -4.2700    1.9020   -3.3910 H   0  0
   -2.6720    2.0980   -4.1060 H   0  0
   -0.5230   -0.3440   -1.5510 H   0  0
   -3.5610   -0.2320   -4.6330 H   0  0
    0.5530   -2.2480   -2.6970 H   0  0
   -2.4670   -2.1390   -5.7620 H   0  0
   -0.4120   -3.1520   -4.8010 H   0  0
  1  2  1  0
  2  3  2  0
  2  4  1  0
  3  5  1  0
  3  6  1  0
  4  7  2  0
  4  8  1  0
  5  9  1  0
  5 10  2  0
  6 11  2  0
  6 12  1  0
  7 13  1  0
  8 14  1  0
  8 15  1  0
 11 16  1  0
 11 17  1  0
 12 18  2  0
 13 19  1  0
 14 20  1  0
 16 21  1  0
 17 22  2  0
 17 23  1  0
 19 24  1  0
 19 25  1  0
 20 26  1  0
 26 27  2  0
 26 28  1  0
 28 29  1  0
 28 30  1  0
 29 31  2  0
 29 32  1  0
 31 33  1  0
 32 34  2  0
 33 35  2  0
  7 10  1  0
 14 19  1  0
 18 22  1  0
 21 23  2  0
 34 35  1  0
  8 36  1  0
 10 37  1  0
 12 38  1  0
 13 39  1  0
 14 40  1  0
 15 41  1  0
 15 42  1  0
 15 43  1  0
 16 44  1  0
 18 45  1  0
 21 46  1  0
 22 47  1  0
 23 48  1  0
 24 49  1  0
 24 50  1  0
 24 51  1  0
 25 52  1  0
 25 53  1  0
 25 54  1  0
 30 55  1  0
 30 56  1  0
 30 57  1  0
 31 58  1  0
 32 59  1  0
 33 60  1  0
 34 61  1  0
 35 62  1  0
M  END
> <Name>
CHEMBL1684348

> <IC50 nM>
1000

> <Molecule_ChEMBL_ID>
CHEMBL1684348

> <Smiles>
C[C@H]1c2c(cc(F)c(-c3cccc4cc[nH]c34)c2F)NC(C)(C)[C@@H]1OC(=O)N(C)c1ccccc1

$$$$
CHEMBL305393
  SciTegic08162514323D

 53 57  0  0  1  0            999 V2000
    1.9610   -2.4960   -1.4750 O   0  0
    3.0660   -2.0250   -0.8590 C   0  0
    0.6560   -1.9880   -1.1540 C   0  0  2  0  0  0
    3.0800   -0.7290   -0.2600 C   0  0
    4.2170   -2.8460   -0.8300 C   0  0
    0.6620   -0.5270   -0.8710 C   0  0
    0.1070   -2.7310    0.0180 C   0  0
    4.2580   -0.3150    0.4390 C   0  0
    1.8570    0.1050   -0.4180 C   0  0
    5.3810   -2.4100   -0.1680 C   0  0
   -0.5250    0.2300   -1.0490 C   0  0
   -0.7870   -3.7990   -0.1820 C   0  0
    0.4900   -2.3690    1.3220 C   0  0
    4.3380    0.8520    1.0960 O   0  0
    5.3980   -1.1520    0.4730 C   0  0
    1.8280    1.5060   -0.1520 C   0  0
   -0.5470    1.6170   -0.7720 C   0  0
   -1.2970   -4.5040    0.9240 C   0  0
   -0.0200   -3.0760    2.4260 C   0  0
    5.2890    0.9570    2.1450 C   0  0
    0.6370    2.2480   -0.3220 C   0  0
   -1.6740    2.3260   -0.9360 N   0  0
   -0.9140   -4.1430    2.2270 C   0  0
   -2.9430    1.6330   -1.1930 C   0  0
   -4.1090    2.5230   -0.9570 C   0  0
   -4.6090    3.3220   -2.0020 C   0  0
   -4.7150    2.5700    0.3120 C   0  0
   -5.7130    4.1640   -1.7770 C   0  0
   -5.8170    3.4140    0.5370 C   0  0
   -6.3170    4.2090   -0.5080 C   0  0
    0.0140   -2.2010   -2.0120 H   0  0
    4.2010   -3.8130   -1.3150 H   0  0
    6.2600   -3.0390   -0.1470 H   0  0
   -1.4180   -0.2700   -1.3980 H   0  0
   -1.0840   -4.0800   -1.1800 H   0  0
    1.1780   -1.5510    1.4820 H   0  0
    6.2890   -0.8300    0.9900 H   0  0
    2.6910    2.0570    0.1740 H   0  0
   -1.9820   -5.3220    0.7700 H   0  0
    0.2750   -2.7970    3.4280 H   0  0
    5.0880    1.8770    2.6950 H   0  0
    5.2620    0.0350    2.7250 H   0  0
    6.2790    1.0450    1.7010 H   0  0
    0.6480    3.3070   -0.1020 H   0  0
   -1.6350    3.3220   -0.8830 H   0  0
   -1.3050   -4.6840    3.0740 H   0  0
   -3.0160    0.7620   -0.5450 H   0  0
   -2.9590    1.2830   -2.2270 H   0  0
   -4.1500    3.2910   -2.9790 H   0  0
   -4.3360    1.9610    1.1190 H   0  0
   -6.0960    4.7770   -2.5800 H   0  0
   -6.2790    3.4470    1.5120 H   0  0
   -7.1640    4.8570   -0.3360 H   0  0
  1  2  1  0
  1  3  1  0
  2  4  2  0
  2  5  1  0
  3  6  1  0
  3  7  1  0
  4  8  1  0
  4  9  1  0
  5 10  2  0
  6 11  2  0
  7 12  2  0
  7 13  1  0
  8 14  1  0
  8 15  2  0
  9 16  2  0
 11 17  1  0
 12 18  1  0
 13 19  2  0
 14 20  1  0
 16 21  1  0
 17 22  1  0
 18 23  2  0
 22 24  1  0
 24 25  1  0
 25 26  2  0
 25 27  1  0
 26 28  1  0
 27 29  2  0
 28 30  2  0
  6  9  1  0
 10 15  1  0
 17 21  2  0
 19 23  1  0
 29 30  1  0
  3 31  1  0
  5 32  1  0
 10 33  1  0
 11 34  1  0
 12 35  1  0
 13 36  1  0
 15 37  1  0
 16 38  1  0
 18 39  1  0
 19 40  1  0
 20 41  1  0
 20 42  1  0
 20 43  1  0
 21 44  1  0
 22 45  1  0
 23 46  1  0
 24 47  1  0
 24 48  1  0
 26 49  1  0
 27 50  1  0
 28 51  1  0
 29 52  1  0
 30 53  1  0
M  END
> <Name>
CHEMBL305393

> <IC50 nM>
910

> <Molecule_ChEMBL_ID>
CHEMBL305393

> <Smiles>
COc1cccc2c1-c1ccc(NCc3ccccc3)cc1C(c1ccccc1)O2

$$$$
CHEMBL3578284
  SciTegic08162514323D

 61 66  0  0  1  0            999 V2000
    7.8280    1.0760    1.7050 F   0  0
    6.5180    0.9000    1.8590 C   0  0
    5.9530   -0.3750    1.6840 C   0  0
    5.6990    1.9920    2.1990 C   0  0
    4.5690   -0.5590    1.8460 C   0  0
    4.3150    1.8090    2.3610 C   0  0
    3.7480    0.5330    2.1860 C   0  0
    2.2850    0.3380    2.3570 C   0  0  2  0  0  0
    1.5670    0.5250    1.1000 N   0  0
    1.7290    1.2150    3.4810 C   0  0
    1.5040    1.6970    0.3550 C   0  0
    0.8190   -0.4410    0.4340 C   0  0
    2.0710    2.7050    0.7090 O   0  0
    0.7700    1.5720   -0.7500 O   0  0
    0.6600   -1.5800    0.8090 O   0  0
    0.2760    0.2250   -0.8140 C   0  0  2  0  0  0
   -1.2380    0.2520   -0.8340 C   0  0
    0.8090   -0.4360   -2.0800 C   0  0
   -2.0190   -0.8830   -0.7520 N   0  0
   -1.9840    1.4100   -0.9380 N   0  0
    2.2950   -0.3890   -2.1390 C   0  0
   -3.2770   -0.4080   -0.8050 C   0  0
   -3.2560    0.9750   -0.9160 C   0  0
    3.0530   -1.4570   -1.6290 C   0  0
    2.9420    0.7270   -2.7030 C   0  0
   -4.4980   -1.1250   -0.7600 C   0  0
   -4.4610    1.7270   -0.9880 C   0  0
    4.4570   -1.4100   -1.6840 C   0  0
    4.3460    0.7710   -2.7580 C   0  0
   -5.6890   -0.3670   -0.8340 C   0  0
   -5.7030    1.0430   -0.9450 C   0  0
    5.1040   -0.2970   -2.2480 C   0  0
   -6.9840   -1.0860   -0.7910 C   0  0
   -7.3120   -2.0940    0.0920 C   0  0
   -8.0470   -0.8460   -1.6270 C   0  0
   -8.5920   -2.4650   -0.2230 N   0  0
   -6.4960   -2.7230    1.2030 C   0  0
   -9.0230   -1.7210   -1.2420 O   0  0
    6.5780   -1.2150    1.4240 H   0  0
    6.1290    2.9730    2.3360 H   0  0
    4.1410   -1.5410    1.7090 H   0  0
    3.6900    2.6500    2.6210 H   0  0
    2.2560   -0.7150    2.6390 H   0  0
    0.7190    0.9020    3.7480 H   0  0
    2.3650    1.1580    4.3630 H   0  0
    1.6840    2.2580    3.1680 H   0  0
    0.3950    0.0430   -2.9690 H   0  0
    0.4770   -1.4710   -2.1430 H   0  0
   -1.6540    2.3440   -1.0100 H   0  0
    2.5630   -2.3150   -1.1930 H   0  0
    2.3630    1.5510   -3.0960 H   0  0
   -4.5160   -2.2030   -0.6760 H   0  0
   -4.4350    2.8030   -1.0720 H   0  0
    5.0390   -2.2330   -1.2930 H   0  0
    4.8420    1.6270   -3.1910 H   0  0
   -6.6330    1.5920   -0.9980 H   0  0
    6.1820   -0.2640   -2.2910 H   0  0
   -8.1150   -0.1210   -2.4280 H   0  0
   -7.0590   -2.9200    2.1150 H   0  0
   -5.6660   -2.0650    1.4590 H   0  0
   -6.0800   -3.6680    0.8570 H   0  0
  1  2  1  0
  2  3  2  0
  2  4  1  0
  3  5  1  0
  4  6  2  0
  5  7  2  0
  7  8  1  0
  8  9  1  0
  8 10  1  0
  9 11  1  0
  9 12  1  0
 11 13  2  0
 11 14  1  0
 12 15  2  0
 12 16  1  0
 16 17  1  0
 16 18  1  0
 17 19  2  0
 17 20  1  0
 18 21  1  0
 19 22  1  0
 20 23  1  0
 21 24  2  0
 21 25  1  0
 22 26  1  0
 23 27  1  0
 24 28  1  0
 25 29  2  0
 26 30  2  0
 27 31  2  0
 28 32  2  0
 30 33  1  0
 33 34  1  0
 33 35  2  0
 34 36  2  0
 34 37  1  0
 35 38  1  0
  6  7  1  0
 14 16  1  0
 22 23  2  0
 29 32  1  0
 30 31  1  0
 36 38  1  0
  3 39  1  0
  4 40  1  0
  5 41  1  0
  6 42  1  0
  8 43  1  0
 10 44  1  0
 10 45  1  0
 10 46  1  0
 18 47  1  0
 18 48  1  0
 20 49  1  0
 24 50  1  0
 25 51  1  0
 26 52  1  0
 27 53  1  0
 28 54  1  0
 29 55  1  0
 31 56  1  0
 32 57  1  0
 35 58  1  0
 37 59  1  0
 37 60  1  0
 37 61  1  0
M  END
> <Name>
CHEMBL3578284

> <IC50 nM>
2900

> <Molecule_ChEMBL_ID>
CHEMBL3578284

> <Smiles>
Cc1nocc1-c1ccc2[nH]c([C@@]3(Cc4ccccc4)OC(=O)N([C@H](C)c4ccc(F)cc4)C3=O)nc2c1

$$$$
CHEMBL1917243
  SciTegic08162514323D

 68 73  0  0  1  0            999 V2000
    5.1290    5.1050   -0.4860 S   0  0
    4.3770    3.8120    0.4120 C   0  0
    3.6900    5.8980   -0.3010 C   0  0
    4.7870    2.2750    0.9750 S   0  0
    3.0450    4.0720    0.8030 N   0  0
    2.6480    5.3090    0.3770 C   0  0
    3.5020    7.1970   -0.8380 C   0  0
    3.3710    1.3300    0.5740 C   0  0
    1.3970    5.9450    0.5610 C   0  0
    2.2660    7.8710   -0.6760 C   0  0
    3.7360   -0.1290    0.5330 C   0  0
    1.2090    7.2420    0.0250 C   0  0
    4.7340   -0.5370    1.0800 O   0  0
    2.8180   -1.0720   -0.2090 C   0  0  2  0  0  0
    2.9450   -0.7660   -1.5880 O   0  0
    1.3340   -1.0120    0.2320 C   0  0  2  0  0  0
    3.1640   -2.5630   -0.0040 C   0  0
    0.7850   -2.3030   -0.3930 C   0  0  1  0  0  0
    0.4770    0.1620   -0.2850 C   0  0
    1.3070   -1.0980    1.7680 C   0  0
    1.8380   -3.3340    0.0060 C   0  0
   -0.6700   -2.5860    0.0250 C   0  0  1  0  0  0
   -1.0290   -0.0220    0.0210 C   0  0  1  0  0  0
   -1.5880   -1.4140   -0.4220 C   0  0  1  0  0  0
   -1.1170   -3.9120   -0.6170 C   0  0
   -1.2440    0.2090    1.4000 O   0  0
   -1.5250   -1.3810   -1.8010 F   0  0
   -3.0900   -1.6800   -0.0550 C   0  0  2  0  0  0
   -2.5840   -4.2310   -0.3180 C   0  0
   -3.5290   -3.0630   -0.5370 C   0  0
   -3.9880   -0.5550   -0.6450 C   0  0
   -3.2990   -1.7330    1.4670 C   0  0
   -4.7270   -3.2740   -1.1250 C   0  0
   -5.4840   -0.8890   -0.6150 C   0  0
   -5.7420   -2.2170   -1.2770 C   0  0
   -6.7500   -2.4180   -1.9140 O   0  0
    4.3070    7.6800   -1.3750 H   0  0
    2.5980    1.4980    1.3240 H   0  0
    2.9880    1.6420   -0.3960 H   0  0
    0.5980    5.4550    1.0980 H   0  0
    2.1290    8.8610   -1.0860 H   0  0
    0.2660    7.7500    0.1520 H   0  0
    2.6350    0.1460   -1.7090 H   0  0
    3.6620   -2.7170    0.9430 H   0  0
    3.8360   -2.9420   -0.7620 H   0  0
    0.8090   -2.2170   -1.4730 H   0  0
    0.8460    1.1050    0.1210 H   0  0
    0.5860    0.2500   -1.3670 H   0  0
    0.3220   -1.4100    2.1170 H   0  0
    2.0530   -1.8050    2.1270 H   0  0
    1.5250   -0.1270    2.2110 H   0  0
    1.8540   -4.1740   -0.6760 H   0  0
    1.6370   -3.7210    0.9940 H   0  0
   -0.7210   -2.6900    1.1090 H   0  0
   -1.5780    0.7690   -0.4900 H   0  0
   -0.4960   -4.7330   -0.2620 H   0  0
   -0.9750   -3.8690   -1.6970 H   0  0
   -1.0410    1.1420    1.5680 H   0  0
   -2.6720   -4.5450    0.7230 H   0  0
   -2.8910   -5.0880   -0.9180 H   0  0
   -3.7150   -0.3590   -1.6820 H   0  0
   -3.8200    0.3830   -0.1130 H   0  0
   -2.4840   -2.2540    1.9710 H   0  0
   -4.2270   -2.2520    1.7110 H   0  0
   -3.3590   -0.7290    1.8830 H   0  0
   -4.9670   -4.2600   -1.4940 H   0  0
   -6.0510   -0.1080   -1.1210 H   0  0
   -5.8440   -0.9260    0.4140 H   0  0
  1  2  1  0
  1  3  1  0
  2  4  1  0
  2  5  2  0
  3  6  1  0
  3  7  2  0
  4  8  1  0
  6  9  2  0
  7 10  1  0
  8 11  1  0
  9 12  1  0
 11 13  2  0
 11 14  1  0
 14 15  1  0
 14 16  1  0
 14 17  1  0
 16 18  1  0
 16 19  1  0
 16 20  1  0
 17 21  1  0
 18 22  1  0
 19 23  1  0
 22 24  1  0
 22 25  1  0
 23 26  1  0
 24 27  1  0
 24 28  1  0
 25 29  1  0
 28 30  1  0
 28 31  1  0
 28 32  1  0
 30 33  2  0
 31 34  1  0
 33 35  1  0
 35 36  2  0
  5  6  1  0
 10 12  2  0
 18 21  1  0
 23 24  1  0
 29 30  1  0
 34 35  1  0
  7 37  1  0
  8 38  1  0
  8 39  1  0
  9 40  1  0
 10 41  1  0
 12 42  1  0
 15 43  1  0
 17 44  1  0
 17 45  1  0
 18 46  1  0
 19 47  1  0
 19 48  1  0
 20 49  1  0
 20 50  1  0
 20 51  1  0
 21 52  1  0
 21 53  1  0
 22 54  1  0
 23 55  1  0
 25 56  1  0
 25 57  1  0
 26 58  1  0
 29 59  1  0
 29 60  1  0
 31 61  1  0
 31 62  1  0
 32 63  1  0
 32 64  1  0
 32 65  1  0
 33 66  1  0
 34 67  1  0
 34 68  1  0
M  END
> <Name>
CHEMBL1917243

> <IC50 nM>
4.6

> <Molecule_ChEMBL_ID>
CHEMBL1917243

> <Smiles>
C[C@]12CCC(=O)C=C1CC[C@H]1[C@@H]3CC[C@](O)(C(=O)CSc4nc5ccccc5s4)[C@@]3(C)C[C@H](O)[C@@]12F

$$$$
CHEMBL1911546
  SciTegic08162514323D

 55 57  0  0  1  0            999 V2000
    6.1860    0.5860    3.0570 F   0  0
    5.5020    0.4980    1.9180 C   0  0
    4.3110   -0.2480    1.8690 C   0  0
    5.9690    1.1480    0.7640 C   0  0
    3.5860   -0.3420    0.6680 C   0  0
    5.2460    1.0550   -0.4380 C   0  0
    4.0550    0.3110   -0.4900 C   0  0
    2.3280   -1.1330    0.6270 C   0  0
    3.3850    0.2290   -1.6230 O   0  0
    1.4280    0.0720    0.9020 C   0  0
    2.2790   -2.1720    1.7480 C   0  0
    2.0900   -1.7440   -0.7540 C   0  0
    3.9080    0.9040   -2.7580 C   0  0
   -0.0600   -0.2700    0.8200 C   0  0  1  0  0  0
   -0.2320   -1.5960    1.2660 O   0  0
   -0.7750    0.6620    1.7990 C   0  0
   -0.6110   -0.1680   -0.6040 C   0  0
   -2.0940    0.2950    1.8970 F   0  0
   -0.6950    1.9530    1.3440 F   0  0
   -0.1830    0.5720    3.0310 F   0  0
   -2.1250   -0.2010   -0.6070 C   0  0
   -2.9260    0.9650   -0.6840 N   0  0
   -2.9750   -1.3200   -0.5430 C   0  0
   -4.2500    0.5470   -0.6640 C   0  0
   -4.2300   -0.8220   -0.5800 C   0  0
   -5.4710    1.2680   -0.7150 C   0  0
   -5.4280   -1.5760   -0.5390 C   0  0
   -6.6870    0.5350   -0.6740 C   0  0
   -5.4840    2.7360   -0.8050 C   0  0
   -6.6640   -0.8830   -0.5880 C   0  0
   -6.7810    3.1800   -0.8340 F   0  0
   -4.8420    3.1290   -1.9490 F   0  0
   -4.8440    3.2680    0.2850 F   0  0
    3.9510   -0.7480    2.7580 H   0  0
    6.8830    1.7230    0.7970 H   0  0
    5.6100    1.5570   -1.3220 H   0  0
    1.6720    0.8960    0.2290 H   0  0
    1.6680    0.5210    1.8650 H   0  0
    3.2640   -2.5900    1.9570 H   0  0
    1.6150   -2.9940    1.4840 H   0  0
    1.9060   -1.7270    2.6700 H   0  0
    3.0000   -2.1820   -1.1660 H   0  0
    1.7360   -0.9880   -1.4550 H   0  0
    1.3360   -2.5290   -0.7030 H   0  0
    3.8990    1.9750   -2.5530 H   0  0
    4.8770    0.4670   -2.9960 H   0  0
    3.2420    0.7210   -3.6020 H   0  0
   -1.1700   -1.8140    1.1560 H   0  0
   -0.2280   -0.9790   -1.2230 H   0  0
   -0.2650    0.7460   -1.0860 H   0  0
   -2.6010    1.9020   -0.7380 H   0  0
   -2.6760   -2.3590   -0.4790 H   0  0
   -5.4100   -2.6560   -0.4730 H   0  0
   -7.6330    1.0550   -0.7110 H   0  0
   -7.5940   -1.4340   -0.5570 H   0  0
  1  2  1  0
  2  3  2  0
  2  4  1  0
  3  5  1  0
  4  6  2  0
  5  7  2  0
  5  8  1  0
  7  9  1  0
  8 10  1  0
  8 11  1  0
  8 12  1  0
  9 13  1  0
 10 14  1  0
 14 15  1  0
 14 16  1  0
 14 17  1  0
 16 18  1  0
 16 19  1  0
 16 20  1  0
 17 21  1  0
 21 22  1  0
 21 23  2  0
 22 24  1  0
 23 25  1  0
 24 26  1  0
 25 27  1  0
 26 28  2  0
 26 29  1  0
 27 30  2  0
 29 31  1  0
 29 32  1  0
 29 33  1  0
  6  7  1  0
 24 25  2  0
 28 30  1  0
  3 34  1  0
  4 35  1  0
  6 36  1  0
 10 37  1  0
 10 38  1  0
 11 39  1  0
 11 40  1  0
 11 41  1  0
 12 42  1  0
 12 43  1  0
 12 44  1  0
 13 45  1  0
 13 46  1  0
 13 47  1  0
 15 48  1  0
 17 49  1  0
 17 50  1  0
 22 51  1  0
 23 52  1  0
 27 53  1  0
 28 54  1  0
 30 55  1  0
M  END
> <Name>
CHEMBL1911546

> <IC50 nM>
120

> <Molecule_ChEMBL_ID>
CHEMBL1911546

> <Smiles>
COc1ccc(F)cc1C(C)(C)CC(O)(Cc1cc2cccc(C(F)(F)F)c2[nH]1)C(F)(F)F

$$$$
CHEMBL3358929
  SciTegic08162514323D

 63 66  0  0  1  0            999 V2000
   -4.2580    7.3550    1.1760 F   0  0
   -4.0720    6.0820    1.5120 C   0  0
   -3.3320    5.2320    0.6680 C   0  0
   -4.6150    5.5840    2.7070 C   0  0
   -3.1350    3.8870    1.0220 C   0  0
   -4.4200    4.2380    3.0630 C   0  0
   -3.6800    3.3870    2.2210 C   0  0
   -2.3500    3.0020    0.1170 C   0  0
   -3.4830    1.9650    2.6110 C   0  0
   -1.0800    3.0740    0.9670 C   0  0
   -2.1700    3.6290   -1.2660 C   0  0
   -2.9400    1.5940    0.0550 C   0  0
   -0.0240    2.0570    0.5350 C   0  0  1  0  0  0
   -0.4010    1.5350   -0.7210 O   0  0
    1.2830    2.8320    0.3570 C   0  0
    0.1090    0.8910    1.5160 C   0  0
    1.7230    3.2690    1.5800 F   0  0
    1.0680    3.9080   -0.4630 F   0  0
    2.2280    2.0120   -0.2010 F   0  0
    0.9180   -0.2400    0.9180 C   0  0
    2.2640   -0.5120    1.2770 N   0  0
    0.5170   -1.1840   -0.0510 C   0  0
    2.6580   -1.6080    0.5310 C   0  0
    1.5920   -1.9770   -0.2480 C   0  0
    3.8510   -2.3500    0.4360 C   0  0
    1.6830   -3.0840   -1.1390 C   0  0
    4.0100   -3.4320   -0.4040 N   0  0
    2.9220   -3.7990   -1.1930 C   0  0
    3.0490   -4.8500   -2.0200 N   0  0
    1.9080   -5.7480   -2.3220 C   0  0
    4.3380   -5.1740   -2.6800 C   0  0
    2.3360   -7.2330   -2.2830 C   0  0
    4.6330   -6.6900   -2.6210 C   0  0
    3.5060   -7.4400   -3.0630 O   0  0
   -2.9160    5.6190   -0.2500 H   0  0
   -5.1860    6.2320    3.3580 H   0  0
   -4.8400    3.8610    3.9830 H   0  0
   -4.2230    1.3440    2.1090 H   0  0
   -2.4590    1.6660    2.3870 H   0  0
   -3.6310    1.8590    3.6860 H   0  0
   -1.3170    2.9570    2.0230 H   0  0
   -0.6680    4.0820    0.9590 H   0  0
   -3.1080    4.0210   -1.6580 H   0  0
   -1.7950    2.8910   -1.9770 H   0  0
   -1.4530    4.4490   -1.2270 H   0  0
   -2.8670    1.1660   -0.9450 H   0  0
   -3.9920    1.6030    0.3380 H   0  0
   -2.4160    0.9260    0.7400 H   0  0
    0.1370    1.9860   -1.3910 H   0  0
   -0.8710    0.5190    1.8110 H   0  0
    0.5780    1.2210    2.4430 H   0  0
    2.8140   -0.0120    1.9380 H   0  0
   -0.4490   -1.2520   -0.5330 H   0  0
    4.6890   -2.0570    1.0510 H   0  0
    0.8380   -3.3690   -1.7520 H   0  0
    1.0820   -5.5820   -1.6270 H   0  0
    1.5350   -5.5000   -3.3160 H   0  0
    5.1620   -4.6190   -2.2270 H   0  0
    4.2750   -4.8520   -3.7210 H   0  0
    1.5450   -7.8730   -2.6760 H   0  0
    2.5370   -7.5550   -1.2600 H   0  0
    4.8810   -7.0020   -1.6050 H   0  0
    5.4820   -6.9420   -3.2560 H   0  0
  1  2  1  0
  2  3  2  0
  2  4  1  0
  3  5  1  0
  4  6  2  0
  5  7  2  0
  5  8  1  0
  7  9  1  0
  8 10  1  0
  8 11  1  0
  8 12  1  0
 10 13  1  0
 13 14  1  0
 13 15  1  0
 13 16  1  0
 15 17  1  0
 15 18  1  0
 15 19  1  0
 16 20  1  0
 20 21  1  0
 20 22  2  0
 21 23  1  0
 22 24  1  0
 23 25  1  0
 24 26  1  0
 25 27  2  0
 26 28  2  0
 28 29  1  0
 29 30  1  0
 29 31  1  0
 30 32  1  0
 31 33  1  0
 32 34  1  0
  6  7  1  0
 23 24  2  0
 27 28  1  0
 33 34  1  0
  3 35  1  0
  4 36  1  0
  6 37  1  0
  9 38  1  0
  9 39  1  0
  9 40  1  0
 10 41  1  0
 10 42  1  0
 11 43  1  0
 11 44  1  0
 11 45  1  0
 12 46  1  0
 12 47  1  0
 12 48  1  0
 14 49  1  0
 16 50  1  0
 16 51  1  0
 21 52  1  0
 22 53  1  0
 25 54  1  0
 26 55  1  0
 30 56  1  0
 30 57  1  0
 31 58  1  0
 31 59  1  0
 32 60  1  0
 32 61  1  0
 33 62  1  0
 33 63  1  0
M  END
> <Name>
CHEMBL3358929

> <IC50 nM>
3

> <Molecule_ChEMBL_ID>
CHEMBL3358929

> <Smiles>
Cc1ccc(F)cc1C(C)(C)CC(O)(Cc1cc2cc(N3CCOCC3)ncc2[nH]1)C(F)(F)F

$$$$
CHEMBL392289
  SciTegic08162514323D

 50 51  0  0  1  0            999 V2000
    1.4060   -3.3200    1.1580 Cl  0  0
   -0.2970   -3.5220    1.0470 C   0  0
   -1.1560   -2.4140    0.8690 C   0  0
   -0.8400   -4.8180    1.1370 C   0  0
   -2.5470   -2.6150    0.7790 C   0  0
   -0.6250   -1.0270    0.7750 C   0  0
   -2.2290   -5.0140    1.0470 C   0  0
   -3.0820   -3.9100    0.8670 C   0  0
   -0.6000   -0.5310   -0.6720 C   0  0  2  0  0  0
   -2.7990   -6.3910    1.1430 C   0  0
   -1.9080   -0.1430   -1.0250 O   0  0
   -0.1370   -1.6060   -1.6560 C   0  0
    0.3260    0.6700   -0.8670 C   0  0
   -2.0800   -7.3520    1.2930 O   0  0
    1.1580   -1.9550   -1.3730 F   0  0
   -0.2090   -1.1150   -2.9340 F   0  0
   -0.9430   -2.7090   -1.5430 F   0  0
   -0.2660    1.9670   -0.3160 C   0  0
    0.9320    2.7830   -0.6500 C   0  0
   -1.4980    2.4300   -1.0960 C   0  0
   -0.5080    1.9120    1.1910 C   0  0
    2.0450    2.8010    0.2130 C   0  0
    0.9470    3.5410   -1.8360 C   0  0
    2.0390    2.0960    1.3260 O   0  0
    3.1680    3.5780   -0.1170 C   0  0
    2.0740    4.3160   -2.1600 C   0  0
    3.2910    1.7360    1.8930 C   0  0
    3.1860    4.3360   -1.3010 C   0  0
    2.0880    5.0330   -3.2810 F   0  0
   -0.1890   -5.6720    1.2730 H   0  0
   -3.2090   -1.7740    0.6430 H   0  0
   -1.2230   -0.3650    1.4000 H   0  0
    0.3730   -0.9900    1.2110 H   0  0
   -4.1500   -4.0510    0.7970 H   0  0
   -3.8690   -6.5240    1.0760 H   0  0
   -2.3220   -0.9020   -1.4650 H   0  0
    1.3050    0.4770   -0.4300 H   0  0
    0.5920    0.7830   -1.9180 H   0  0
   -1.5290    3.5160   -1.1990 H   0  0
   -2.4120    2.1190   -0.5900 H   0  0
   -1.5060    1.9980   -2.0960 H   0  0
   -1.5470    1.6820    1.4300 H   0  0
   -0.2640    2.8670    1.6560 H   0  0
    0.1170    1.1480    1.6540 H   0  0
    0.0940    3.5290   -2.4980 H   0  0
    4.0230    3.5940    0.5430 H   0  0
    3.9240    1.3400    1.1000 H   0  0
    3.6820    2.6000    2.4340 H   0  0
    3.1230    0.9390    2.6150 H   0  0
    4.0530    4.9300   -1.5450 H   0  0
  1  2  1  0
  2  3  2  0
  2  4  1  0
  3  5  1  0
  3  6  1  0
  4  7  2  0
  5  8  2  0
  6  9  1  0
  7 10  1  0
  9 11  1  0
  9 12  1  0
  9 13  1  0
 10 14  2  0
 12 15  1  0
 12 16  1  0
 12 17  1  0
 13 18  1  0
 18 19  1  0
 18 20  1  0
 18 21  1  0
 19 22  2  0
 19 23  1  0
 22 24  1  0
 22 25  1  0
 23 26  2  0
 24 27  1  0
 25 28  2  0
 26 29  1  0
  7  8  1  0
 26 28  1  0
  4 30  1  0
  5 31  1  0
  6 32  1  0
  6 33  1  0
  8 34  1  0
 10 35  1  0
 11 36  1  0
 13 37  1  0
 13 38  1  0
 20 39  1  0
 20 40  1  0
 20 41  1  0
 21 42  1  0
 21 43  1  0
 21 44  1  0
 23 45  1  0
 25 46  1  0
 27 47  1  0
 27 48  1  0
 27 49  1  0
 28 50  1  0
M  END
> <Name>
CHEMBL392289

> <IC50 nM>
19

> <Molecule_ChEMBL_ID>
CHEMBL392289

> <Smiles>
COc1ccc(F)cc1C(C)(C)CC(O)(Cc1ccc(C=O)cc1Cl)C(F)(F)F

$$$$
CHEMBL2023240
  SciTegic08162514323D

 80 87  0  0  1  0            999 V2000
    7.6210   -1.0220   -0.7640 S   0  0
    6.2250   -1.8280   -1.4380 C   0  0
    8.4010   -2.4670   -0.9280 C   0  0
    5.0490   -1.2210   -1.6390 O   0  0
    6.4630   -3.1880   -1.7480 N   0  0
    7.7440   -3.5530   -1.4450 C   0  0
    9.7580   -2.6100   -0.5390 C   0  0
    4.9360    0.1500   -1.2830 C   0  0
    8.3630   -4.8150   -1.6090 C   0  0
   10.4180   -3.8560   -0.6860 C   0  0
    3.5450    0.6350   -1.5900 C   0  0
    9.7170   -4.9630   -1.2230 C   0  0
    3.3010    1.2170   -2.6210 O   0  0
    2.4630    0.3730   -0.5680 C   0  0  2  0  0  0
    2.1540   -1.0100   -0.6460 O   0  0
    1.1890    1.2340   -0.7440 C   0  0  2  0  0  0
    2.8810    0.7030    0.8790 C   0  0
    0.4920    1.0160    0.6050 C   0  0  1  0  0  0
    0.2190    0.8460   -1.8750 C   0  0
    1.6330    2.7010   -0.8850 C   0  0
    1.6350    1.2400    1.5960 C   0  0
   -0.7680    1.8870    0.7680 C   0  0  1  0  0  0
   -1.1410    1.5700   -1.7720 C   0  0  1  0  0  0
   -1.7720    1.4670   -0.3550 C   0  0  2  0  0  0
   -1.3280    1.7110    2.2070 C   0  0
   -0.9900    2.9240   -2.1600 O   0  0
   -3.1560    2.1640   -0.1640 C   0  0  2  0  0  0
   -2.7540    2.2600    2.3770 C   0  0
   -3.5660    1.6970    1.2380 C   0  0
   -4.1990    1.8280   -1.2870 C   0  0
   -2.9840    3.6910   -0.1580 C   0  0
   -4.5250    0.7670    1.4510 C   0  0
   -5.0240    0.5780   -1.0250 C   0  0
   -5.1720    0.1500    0.2810 C   0  0
   -5.6820   -0.1820   -1.9920 C   0  0
   -6.0000   -0.9200    0.1330 N   0  0
   -6.2770   -1.1020   -1.1860 N   0  0
   -6.4770   -1.6970    1.1390 C   0  0
   -5.6110   -2.1490    2.1560 C   0  0
   -7.8380   -2.0570    1.1680 C   0  0
   -6.1080   -2.9530    3.1950 C   0  0
   -8.3320   -2.8630    2.2090 C   0  0
   -7.4670   -3.3110    3.2230 C   0  0
   -7.9360   -4.0740    4.2090 F   0  0
   10.2930   -1.7660   -0.1290 H   0  0
    5.1350    0.2440   -0.2170 H   0  0
    5.6620    0.7150   -1.8690 H   0  0
    7.8180   -5.6530   -2.0200 H   0  0
   11.4510   -3.9590   -0.3890 H   0  0
   10.2130   -5.9160   -1.3380 H   0  0
    2.9340   -1.4940   -0.3300 H   0  0
    3.6470    1.4670    0.8950 H   0  0
    3.2950   -0.1500    1.4000 H   0  0
    0.1860   -0.0200    0.6890 H   0  0
    0.0210   -0.2270   -1.8420 H   0  0
    0.6780    1.0250   -2.8480 H   0  0
    2.4650    2.9370   -0.2210 H   0  0
    0.8130    3.3770   -0.6460 H   0  0
    1.9530    2.9100   -1.9060 H   0  0
    1.7480    2.2910    1.8110 H   0  0
    1.4530    0.7380    2.5350 H   0  0
   -0.5080    2.9390    0.6390 H   0  0
   -1.7990    1.1130   -2.5080 H   0  0
   -1.9510    0.3960   -0.2230 H   0  0
   -0.6640    2.1910    2.9260 H   0  0
   -1.3340    0.6500    2.4650 H   0  0
   -0.7520    2.9260   -3.1020 H   0  0
   -2.7600    3.3520    2.3540 H   0  0
   -3.1680    1.9630    3.3420 H   0  0
   -4.9300    2.6390   -1.3440 H   0  0
   -3.7500    1.7930   -2.2770 H   0  0
   -3.8690    4.1800    0.2500 H   0  0
   -2.1150    3.9780    0.4340 H   0  0
   -2.8340    4.0660   -1.1720 H   0  0
   -4.7930    0.4650    2.4550 H   0  0
   -5.7360   -0.1020   -3.0680 H   0  0
   -4.5650   -1.8850    2.1520 H   0  0
   -8.5200   -1.7230    0.3980 H   0  0
   -5.4400   -3.2970    3.9730 H   0  0
   -9.3770   -3.1350    2.2270 H   0  0
  1  2  1  0
  1  3  1  0
  2  4  1  0
  2  5  2  0
  3  6  1  0
  3  7  2  0
  4  8  1  0
  6  9  2  0
  7 10  1  0
  8 11  1  0
  9 12  1  0
 11 13  2  0
 11 14  1  0
 14 15  1  0
 14 16  1  0
 14 17  1  0
 16 18  1  0
 16 19  1  0
 16 20  1  0
 17 21  1  0
 18 22  1  0
 19 23  1  0
 24 22  1  0
 22 25  1  0
 23 26  1  0
 24 27  1  0
 25 28  1  0
 27 29  1  0
 27 30  1  0
 27 31  1  0
 29 32  2  0
 30 33  1  0
 32 34  1  0
 33 35  1  0
 34 36  1  0
 35 37  2  0
 36 38  1  0
 38 39  2  0
 38 40  1  0
 39 41  1  0
 40 42  2  0
 41 43  2  0
 43 44  1  0
  5  6  1  0
 10 12  2  0
 18 21  1  0
 23 24  1  0
 28 29  1  0
 33 34  2  0
 36 37  1  0
 42 43  1  0
  7 45  1  0
  8 46  1  0
  8 47  1  0
  9 48  1  0
 10 49  1  0
 12 50  1  0
 15 51  1  0
 17 52  1  0
 17 53  1  0
 18 54  1  0
 19 55  1  0
 19 56  1  0
 20 57  1  0
 20 58  1  0
 20 59  1  0
 21 60  1  0
 21 61  1  0
 22 62  1  0
 23 63  1  0
 24 64  1  0
 25 65  1  0
 25 66  1  0
 26 67  1  0
 28 68  1  0
 28 69  1  0
 30 70  1  0
 30 71  1  0
 31 72  1  0
 31 73  1  0
 31 74  1  0
 32 75  1  0
 35 76  1  0
 39 77  1  0
 40 78  1  0
 41 79  1  0
 42 80  1  0
M  END
> <Name>
CHEMBL2023240

> <IC50 nM>
2.1

> <Molecule_ChEMBL_ID>
CHEMBL2023240

> <Smiles>
C[C@]12Cc3cnn(-c4ccc(F)cc4)c3C=C1CC[C@@H]1[C@@H]2[C@@H](O)C[C@@]2(C)[C@H]1CC[C@]2(O)C(=O)COc1nc2ccccc2s1

$$$$
CHEMBL2022861
  SciTegic08162514323D

 89 96  0  0  1  0            999 V2000
    5.8160   -0.0160   -2.6760 S   0  0
    7.3540   -0.3460   -2.0530 C   0  0
    4.8630    0.2340   -1.2290 C   0  0
    7.9160   -0.4420   -0.7930 N   0  0
    8.1880   -0.5610   -3.1880 C   0  0
    3.4410    0.5450   -1.6110 C   0  0
    9.2520   -0.7380   -0.6000 C   0  0
    9.5630   -0.8650   -3.0310 C   0  0
    3.1740    0.9900   -2.7030 O   0  0
    2.3590    0.2850   -0.5920 C   0  0  2  0  0  0
   10.1080   -0.9570   -1.7250 C   0  0
    9.7950   -0.8280    0.7070 C   0  0
    2.0510   -1.1000   -0.6700 O   0  0
    1.0860    1.1460   -0.7680 C   0  0  2  0  0  0
    2.7770    0.6130    0.8570 C   0  0
   11.4790   -1.2600   -1.5350 C   0  0
   11.1640   -1.1330    0.8930 C   0  0
    0.3870    0.9260    0.5820 C   0  0  1  0  0  0
    0.1170    0.7580   -1.9010 C   0  0
    1.5310    2.6110   -0.9060 C   0  0
    1.5290    1.1480    1.5720 C   0  0
   12.0020   -1.3460   -0.2250 C   0  0
   -0.8710    1.7990    0.7440 C   0  0  1  0  0  0
   -1.2420    1.4840   -1.7970 C   0  0  1  0  0  0
   -1.8750    1.3790   -0.3810 C   0  0  2  0  0  0
   -1.4320    1.6210    2.1820 C   0  0
   -1.0900    2.8360   -2.1840 O   0  0
   -3.2600    2.0760   -0.1910 C   0  0  2  0  0  0
   -2.8590    2.1700    2.3520 C   0  0
   -3.6700    1.6070    1.2110 C   0  0
   -4.3010    1.7420   -1.3150 C   0  0
   -3.0860    3.6050   -0.1820 C   0  0
   -4.6270    0.6780    1.4220 C   0  0
   -5.1250    0.4940   -1.0570 C   0  0
   -5.2720    0.0640    0.2500 C   0  0
   -5.7830   -0.2660   -2.0220 C   0  0
   -6.0980   -1.0020    0.1030 N   0  0
   -6.3790   -1.1860   -1.2150 N   0  0
   -6.6090   -1.8440    1.1990 C   0  0
   -7.8400   -2.6520    0.7420 C   0  0
   -5.5040   -2.7700    1.7420 C   0  0
   -8.3600   -3.5720    1.8550 C   0  0
   -6.0290   -3.6900    2.8530 C   0  0
   -7.2520   -4.4920    2.3930 C   0  0
    4.8950   -0.6660   -0.6150 H   0  0
    5.2830    1.0600   -0.6560 H   0  0
    7.7890   -0.4940   -4.1900 H   0  0
   10.1760   -1.0240   -3.9080 H   0  0
    9.1700   -0.6680    1.5740 H   0  0
    2.8460   -1.5840   -0.4000 H   0  0
    3.5430    1.3770    0.8730 H   0  0
    3.1910   -0.2400    1.3770 H   0  0
   12.1350   -1.4260   -2.3790 H   0  0
   11.5700   -1.1990    1.8910 H   0  0
    0.0800   -0.1090    0.6640 H   0  0
   -0.0820   -0.3130   -1.8670 H   0  0
    0.5760    0.9390   -2.8730 H   0  0
    2.3500    2.8530   -0.2290 H   0  0
    0.7050    3.2870   -0.6880 H   0  0
    1.8710    2.8160   -1.9220 H   0  0
    1.6450    2.2010    1.7870 H   0  0
    1.3500    0.6460    2.5120 H   0  0
   13.0470   -1.5780   -0.0760 H   0  0
   -0.6110    2.8510    0.6150 H   0  0
   -1.9000    1.0270   -2.5330 H   0  0
   -2.0550    0.3080   -0.2480 H   0  0
   -0.7700    2.1010    2.9020 H   0  0
   -1.4380    0.5600    2.4390 H   0  0
   -0.8950    2.8420   -3.1350 H   0  0
   -2.8650    3.2600    2.3300 H   0  0
   -3.2740    1.8710    3.3160 H   0  0
   -5.0290    2.5530   -1.3710 H   0  0
   -3.8500    1.7110   -2.3050 H   0  0
   -3.9670    4.0920    0.2340 H   0  0
   -2.2110    3.8910    0.4040 H   0  0
   -2.9430    3.9820   -1.1950 H   0  0
   -4.8970    0.3710    2.4220 H   0  0
   -5.8400   -0.1860   -3.0980 H   0  0
   -6.9200   -1.1760    2.0040 H   0  0
   -7.5840   -3.2600   -0.1270 H   0  0
   -8.6390   -1.9830    0.4240 H   0  0
   -4.6680   -2.1800    2.1230 H   0  0
   -5.1040   -3.3850    0.9340 H   0  0
   -9.1920   -4.1720    1.4840 H   0  0
   -8.7520   -2.9670    2.6720 H   0  0
   -6.2970   -3.0880    3.7230 H   0  0
   -5.2400   -4.3670    3.1780 H   0  0
   -7.6350   -5.0940    3.2150 H   0  0
   -6.9530   -5.1900    1.6090 H   0  0
  1  2  1  0
  1  3  1  0
  2  4  2  0
  2  5  1  0
  3  6  1  0
  4  7  1  0
  5  8  2  0
  6  9  2  0
  6 10  1  0
  7 11  1  0
  7 12  2  0
 10 13  1  0
 10 14  1  0
 10 15  1  0
 11 16  2  0
 12 17  1  0
 14 18  1  0
 14 19  1  0
 14 20  1  0
 15 21  1  0
 16 22  1  0
 18 23  1  0
 19 24  1  0
 25 23  1  0
 23 26  1  0
 24 27  1  0
 25 28  1  0
 26 29  1  0
 28 30  1  0
 28 31  1  0
 28 32  1  0
 30 33  2  0
 31 34  1  0
 33 35  1  0
 34 36  1  0
 35 37  1  0
 36 38  2  0
 37 39  1  0
 39 40  1  0
 39 41  1  0
 40 42  1  0
 41 43  1  0
 42 44  1  0
  8 11  1  0
 17 22  2  0
 18 21  1  0
 24 25  1  0
 29 30  1  0
 34 35  2  0
 37 38  1  0
 43 44  1  0
  3 45  1  0
  3 46  1  0
  5 47  1  0
  8 48  1  0
 12 49  1  0
 13 50  1  0
 15 51  1  0
 15 52  1  0
 16 53  1  0
 17 54  1  0
 18 55  1  0
 19 56  1  0
 19 57  1  0
 20 58  1  0
 20 59  1  0
 20 60  1  0
 21 61  1  0
 21 62  1  0
 22 63  1  0
 23 64  1  0
 24 65  1  0
 25 66  1  0
 26 67  1  0
 26 68  1  0
 27 69  1  0
 29 70  1  0
 29 71  1  0
 31 72  1  0
 31 73  1  0
 32 74  1  0
 32 75  1  0
 32 76  1  0
 33 77  1  0
 36 78  1  0
 39 79  1  0
 40 80  1  0
 40 81  1  0
 41 82  1  0
 41 83  1  0
 42 84  1  0
 42 85  1  0
 43 86  1  0
 43 87  1  0
 44 88  1  0
 44 89  1  0
M  END
> <Name>
CHEMBL2022861

> <IC50 nM>
44.7

> <Molecule_ChEMBL_ID>
CHEMBL2022861

> <Smiles>
C[C@]12Cc3cnn(C4CCCCC4)c3C=C1CC[C@@H]1[C@@H]2[C@@H](O)C[C@@]2(C)[C@H]1CC[C@]2(O)C(=O)CSc1ccc2ccccc2n1

$$$$
CHEMBL243873
  SciTegic08162514323D

 49 51  0  0  1  0            999 V2000
    1.5840    3.8440    2.3010 N   0  0
    0.2640    3.4200    2.3200 C   0  0
    2.3950    2.6840    2.3750 C   0  0
    0.2890    2.0510    2.4040 C   0  0
   -0.9530    4.1390    2.2700 C   0  0
    1.5510    1.5610    2.4420 C   0  0
   -0.9080    1.2950    2.4450 C   0  0
   -2.1680    3.4070    2.3110 C   0  0
    1.9810    0.1100    2.5310 C   0  0
   -2.1460    1.9890    2.3970 C   0  0
    2.2420   -0.4780    1.1450 C   0  0  1  0  0  0
    1.0080   -0.5560    0.3830 N   0  0
    3.3050    0.2990    0.3670 C   0  0
    1.1950   -1.3690   -0.8070 C   0  0
   -0.0940   -1.6150   -1.5120 C   0  0
   -0.4980   -0.7670   -2.5620 C   0  0
   -0.9140   -2.6950   -1.1290 C   0  0
   -1.7170   -1.0020   -3.2270 C   0  0
    0.3520    0.3810   -2.9820 C   0  0
   -2.1310   -2.9260   -1.7950 C   0  0
   -0.5060   -3.6030   -0.0210 C   0  0
   -2.5330   -2.0800   -2.8440 C   0  0
   -3.8180   -2.3260   -3.5450 C   0  0
    1.9040    4.7830    2.2440 H   0  0
    3.4770    2.7030    2.3790 H   0  0
   -0.9630    5.2170    2.2030 H   0  0
   -0.8910    0.2170    2.5100 H   0  0
   -3.1130    3.9280    2.2740 H   0  0
    2.8690    0.0330    3.1580 H   0  0
    1.2150   -0.4630    3.0550 H   0  0
   -3.0720    1.4360    2.4280 H   0  0
    2.5140   -1.5310    1.2190 H   0  0
    0.7520    0.3970    0.0860 H   0  0
    3.6520   -0.2770   -0.4900 H   0  0
    2.9060    1.2520    0.0160 H   0  0
    4.1680    0.5120    0.9980 H   0  0
    1.6470   -2.3220   -0.5290 H   0  0
    1.8890   -0.8690   -1.4820 H   0  0
   -2.0250   -0.3510   -4.0310 H   0  0
    0.6680    1.0260   -2.1640 H   0  0
   -0.1950    0.9940   -3.6990 H   0  0
    1.2460    0.0060   -3.4780 H   0  0
   -2.7580   -3.7560   -1.5000 H   0  0
   -0.2460   -3.0920    0.9040 H   0  0
    0.3590   -4.1890   -0.3320 H   0  0
   -1.3180   -4.2970    0.1970 H   0  0
   -4.3770   -3.1850   -3.1740 H   0  0
   -3.6290   -2.4860   -4.6070 H   0  0
   -4.4590   -1.4470   -3.4510 H   0  0
  1  2  1  0
  1  3  1  0
  2  4  1  0
  2  5  2  0
  3  6  2  0
  4  7  2  0
  5  8  1  0
  6  9  1  0
  7 10  1  0
  9 11  1  0
 11 12  1  0
 11 13  1  0
 12 14  1  0
 14 15  1  0
 15 16  2  0
 15 17  1  0
 16 18  1  0
 16 19  1  0
 17 20  2  0
 17 21  1  0
 18 22  2  0
 22 23  1  0
  4  6  1  0
  8 10  2  0
 20 22  1  0
  1 24  1  0
  3 25  1  0
  5 26  1  0
  7 27  1  0
  8 28  1  0
  9 29  1  0
  9 30  1  0
 10 31  1  0
 11 32  1  0
 12 33  1  0
 13 34  1  0
 13 35  1  0
 13 36  1  0
 14 37  1  0
 14 38  1  0
 18 39  1  0
 19 40  1  0
 19 41  1  0
 19 42  1  0
 20 43  1  0
 21 44  1  0
 21 45  1  0
 21 46  1  0
 23 47  1  0
 23 48  1  0
 23 49  1  0
M  END
> <Name>
CHEMBL243873

> <IC50 nM>
2000

> <Molecule_ChEMBL_ID>
CHEMBL243873

> <Smiles>
Cc1cc(C)c(CNC(C)Cc2c[nH]c3ccccc23)c(C)c1

$$$$
CHEMBL526566
  SciTegic08162514323D

 76 79  0  0  1  0            999 V2000
   -3.2680   -0.3520   -0.7400 F   0  0
   -3.1290    0.4140    0.4000 C   0  0  2  0  0  0
   -4.5820    0.7930    0.8610 C   0  0  2  0  0  0
   -2.2250    1.6110   -0.0490 C   0  0  1  0  0  0
   -2.4380   -0.4860    1.4650 C   0  0  2  0  0  0
   -5.3690   -0.4730    1.2190 C   0  0
   -5.2810    1.6540   -0.1890 C   0  0
   -4.5760    1.6210    2.1540 C   0  0
   -2.2460    2.6600    0.9020 O   0  0
   -0.7500    1.2170   -0.3140 C   0  0
   -1.0040   -0.8380    1.0250 C   0  0  1  0  0  0
   -3.2460   -1.7750    1.7170 C   0  0
   -6.6170   -0.7010    0.7560 C   0  0
   -4.6920   -1.4710    2.1350 C   0  0
   -6.5260    1.3940   -0.6370 C   0  0
   -0.1430    0.4180    0.8540 C   0  0  1  0  0  0
   -0.1800   -1.6760    2.0020 C   0  0
   -7.2830    0.2420   -0.1480 C   0  0
    1.2340   -0.2310    0.6090 C   0  0  1  0  0  0
   -0.0570    1.2520    2.1430 C   0  0
    1.2850   -1.3440    1.6780 C   0  0  1  0  0  0
   -8.4340    0.0720   -0.4820 O   0  0
    1.2480   -0.8440   -0.6740 O   0  0
    2.3960    0.7380    0.6350 C   0  0
    2.0040   -0.9400    2.9650 C   0  0
    2.4590   -1.2750   -1.0160 C   0  0
    2.2300    1.9160    0.4240 O   0  0
    3.7660    0.1910    0.9360 C   0  0
    3.0510   -2.1540   -0.4300 O   0  0
    3.0290   -0.6620   -2.0960 N   0  0
    4.3630    0.9510    1.9610 O   0  0
    4.3650   -1.0800   -2.5390 C   0  0
    4.8460   -0.2230   -3.7130 C   0  0
    6.1680   -0.9840   -3.7870 C   0  0
    5.0290    1.2460   -3.3340 C   0  0
    3.9880   -0.4060   -4.9650 C   0  0
   -2.6230    2.0430   -0.9690 H   0  0
   -2.3890    0.0640    2.4080 H   0  0
   -4.7680    2.5140   -0.5940 H   0  0
   -5.5450    1.6020    2.6540 H   0  0
   -4.3300    2.6620    1.9450 H   0  0
   -3.8340    1.2360    2.8540 H   0  0
   -2.6930    3.4140    0.4860 H   0  0
   -0.7210    0.6130   -1.2210 H   0  0
   -0.1470    2.1020   -0.5290 H   0  0
   -1.0510   -1.3770    0.0880 H   0  0
   -3.2520   -2.3970    0.8200 H   0  0
   -2.7740   -2.3730    2.4940 H   0  0
   -7.1430   -1.5980    1.0530 H   0  0
   -5.2600   -2.4020    2.1780 H   0  0
   -4.6930   -1.0660    3.1480 H   0  0
   -6.9650    2.0550   -1.3710 H   0  0
   -0.3930   -2.7290    1.8870 H   0  0
   -0.4380   -1.4120    3.0200 H   0  0
   -1.0350    1.6070    2.4630 H   0  0
    0.5820    2.1230    1.9960 H   0  0
    0.3650    0.6620    2.9570 H   0  0
    1.7870   -2.2110    1.2750 H   0  0
    1.3790   -1.1430    3.8340 H   0  0
    2.9430   -1.4810    3.0680 H   0  0
    2.2300    0.1270    2.9610 H   0  0
    4.3970    0.2640    0.0490 H   0  0
    3.6860   -0.8400    1.2790 H   0  0
    2.5330    0.0620   -2.5720 H   0  0
    5.2400    0.5720    2.1250 H   0  0
    4.3400   -2.1330   -2.8160 H   0  0
    5.0610   -1.0100   -1.7030 H   0  0
    6.0160   -2.0490   -3.9670 H   0  0
    6.7270   -0.8810   -2.8560 H   0  0
    6.7910   -0.5960   -4.5940 H   0  0
    4.0740    1.7460   -3.1680 H   0  0
    5.5550    1.7850   -4.1230 H   0  0
    5.6150    1.3380   -2.4200 H   0  0
    3.0000    0.0410   -4.8520 H   0  0
    3.8500   -1.4650   -5.1860 H   0  0
    4.4650    0.0550   -5.8300 H   0  0
  2  1  1  0
  2  3  1  0
  2  4  1  0
  2  5  1  0
  3  6  1  0
  3  7  1  0
  3  8  1  0
  4  9  1  0
  4 10  1  0
  5 11  1  0
  5 12  1  0
  6 13  2  0
  6 14  1  0
  7 15  2  0
 10 16  1  0
 11 17  1  0
 13 18  1  0
 16 19  1  0
 16 20  1  0
 17 21  1  0
 18 22  2  0
 19 23  1  0
 19 24  1  0
 21 25  1  0
 23 26  1  0
 24 27  2  0
 24 28  1  0
 26 29  2  0
 26 30  1  0
 28 31  1  0
 30 32  1  0
 32 33  1  0
 33 34  1  0
 33 35  1  0
 33 36  1  0
 11 16  1  0
 12 14  1  0
 15 18  1  0
 19 21  1  0
  4 37  1  0
  5 38  1  0
  7 39  1  0
  8 40  1  0
  8 41  1  0
  8 42  1  0
  9 43  1  0
 10 44  1  0
 10 45  1  0
 11 46  1  0
 12 47  1  0
 12 48  1  0
 13 49  1  0
 14 50  1  0
 14 51  1  0
 15 52  1  0
 17 53  1  0
 17 54  1  0
 20 55  1  0
 20 56  1  0
 20 57  1  0
 21 58  1  0
 25 59  1  0
 25 60  1  0
 25 61  1  0
 28 62  1  0
 28 63  1  0
 30 64  1  0
 31 65  1  0
 32 66  1  0
 32 67  1  0
 34 68  1  0
 34 69  1  0
 34 70  1  0
 35 71  1  0
 35 72  1  0
 35 73  1  0
 36 74  1  0
 36 75  1  0
 36 76  1  0
M  END
> <Name>
CHEMBL526566

> <IC50 nM>
352

> <Molecule_ChEMBL_ID>
CHEMBL526566

> <Smiles>
C[C@H]1C[C@H]2[C@@H]3CCC4=CC(=O)C=C[C@]4(C)[C@@]3(F)[C@@H](O)C[C@]2(C)[C@@]1(OC(=O)NCC(C)(C)C)C(=O)CO

$$$$
CHEMBL210077
  SciTegic08162514323D

 59 62  0  0  1  0            999 V2000
    3.7890   -0.2520    0.5840 F   0  0
    2.6130   -0.7850    1.0430 C   0  0
    2.5530   -2.1150    0.7110 F   0  0
    2.5510   -0.6500    2.4040 F   0  0
    1.4360   -0.0490    0.4020 C   0  0  3  0  0  0
    1.9320    0.7420   -0.6540 O   0  0
    0.7070    0.8280    1.3850 C   0  0
    0.3810   -1.0000   -0.1640 C   0  0
    1.0180    0.8480    2.5530 O   0  0
   -0.3200    1.6090    0.9320 N   0  0
    0.6860   -1.4300   -1.6050 C   0  0  3  0  0  0
   -0.9880    2.4000    1.7830 C   0  0
    1.9570   -2.2210   -1.6000 C   0  0
   -0.5140   -2.2360   -2.1500 C   0  0
    0.8300   -0.1660   -2.4690 C   0  0
   -2.3890    2.5800    1.6450 C   0  0
   -0.2990    3.0650    2.8320 C   0  0
    1.9650   -3.6430   -1.7580 C   0  0
    3.1970   -1.5450   -1.4180 C   0  0
   -0.5570   -3.6460   -1.5620 C   0  0
    0.2170   -0.3280   -3.8590 C   0  0
   -3.0900    3.4200    2.5470 C   0  0
   -0.9980    3.9010    3.7360 C   0  0
    3.1970   -4.3460   -1.7400 C   0  0
    0.7110   -4.4180   -1.9470 C   0  0
    4.4160   -2.2560   -1.4000 C   0  0
   -2.3950    4.0720    3.5860 C   0  0
   -4.5630    3.6370    2.4340 C   0  0
    4.4160   -3.6580   -1.5640 C   0  0
   -3.1860    4.9400    4.5020 C   0  0
   -5.1720    4.4060    3.2720 N   0  0
   -5.3690    2.9710    1.3500 C   0  0
   -2.6760    5.5370    5.4220 O   0  0
   -4.5220    5.1170    4.3710 O   0  0
    1.7210    1.6660   -0.4450 H   0  0
    0.2620   -1.8690    0.4810 H   0  0
   -0.6130   -0.5570   -0.0960 H   0  0
   -0.5740    1.5880   -0.0350 H   0  0
   -1.4490   -1.7150   -1.9370 H   0  0
   -0.4530   -2.3110   -3.2380 H   0  0
    0.4060    0.6990   -1.9590 H   0  0
    1.8750    0.1330   -2.5410 H   0  0
   -2.9240    2.0780    0.8500 H   0  0
    0.7680    2.9420    2.9570 H   0  0
    3.2190   -0.4730   -1.2870 H   0  0
   -1.4410   -4.1780   -1.9200 H   0  0
   -0.6480   -3.5920   -0.4760 H   0  0
    0.3890    0.5630   -4.4630 H   0  0
    0.6450   -1.1910   -4.3710 H   0  0
   -0.8590   -0.4820   -3.7910 H   0  0
   -0.4610    4.4010    4.5310 H   0  0
    3.2090   -5.4200   -1.8630 H   0  0
    0.7500   -5.3440   -1.3730 H   0  0
    0.6500   -4.7070   -2.9960 H   0  0
    5.3480   -1.7280   -1.2640 H   0  0
    5.3500   -4.2010   -1.5530 H   0  0
   -6.4300    3.2250    1.3770 H   0  0
   -5.2850    1.8870    1.4380 H   0  0
   -4.9840    3.2560    0.3710 H   0  0
  1  2  1  0
  2  3  1  0
  2  4  1  0
  2  5  1  0
  5  6  1  0
  5  7  1  0
  5  8  1  0
  7  9  2  0
  7 10  1  0
  8 11  1  0
 10 12  1  0
 11 13  1  0
 11 14  1  0
 11 15  1  0
 12 16  2  0
 12 17  1  0
 13 18  2  0
 13 19  1  0
 14 20  1  0
 15 21  1  0
 16 22  1  0
 17 23  2  0
 18 24  1  0
 18 25  1  0
 19 26  2  0
 22 27  2  0
 22 28  1  0
 24 29  2  0
 27 30  1  0
 28 31  2  0
 28 32  1  0
 30 33  2  0
 30 34  1  0
 20 25  1  0
 23 27  1  0
 26 29  1  0
 31 34  1  0
  6 35  1  0
  8 36  1  0
  8 37  1  0
 10 38  1  0
 14 39  1  0
 14 40  1  0
 15 41  1  0
 15 42  1  0
 16 43  1  0
 17 44  1  0
 19 45  1  0
 20 46  1  0
 20 47  1  0
 21 48  1  0
 21 49  1  0
 21 50  1  0
 23 51  1  0
 24 52  1  0
 25 53  1  0
 25 54  1  0
 26 55  1  0
 29 56  1  0
 32 57  1  0
 32 58  1  0
 32 59  1  0
M  END
> <Name>
CHEMBL210077

> <IC50 nM>
6.17

> <Molecule_ChEMBL_ID>
CHEMBL210077

> <Smiles>
CCC1(CC(O)(C(=O)Nc2ccc3c(=O)onc(C)c3c2)C(F)(F)F)CCCc2ccccc21

$$$$
CHEMBL393349
  SciTegic08162514323D

 55 58  0  0  1  0            999 V2000
    2.9650    1.0920    1.5820 F   0  0
    2.5100    2.1870    0.8960 C   0  0
    2.0740    3.1370    1.7850 F   0  0
    3.5290    2.7070    0.1380 F   0  0
    1.3550    1.7750   -0.0180 C   0  0  3  0  0  0
    1.8970    1.3710   -1.2560 O   0  0
    0.3710    2.9160   -0.2760 C   0  0
    0.6950    0.5620    0.6370 C   0  0
   -0.9260    2.3980   -0.7370 N   0  0
    0.6840   -0.6720   -0.2790 C   0  0  3  0  0  0
   -1.8930    2.1130    0.1560 C   0  0
    1.9920   -1.4020   -0.2070 C   0  0
   -0.5100   -1.5570    0.1420 C   0  0
    0.4770   -0.2030   -1.7250 C   0  0
   -2.8750    1.0940   -0.0610 C   0  0
   -1.9320    2.8590    1.3630 C   0  0
    2.0570   -2.8300   -0.1270 C   0  0
    3.2070   -0.6600   -0.2330 C   0  0
   -0.4450   -2.9400   -0.5060 C   0  0
   -3.8710    0.8460    0.9410 C   0  0
   -2.9020    0.3010   -1.2500 C   0  0
   -2.9200    2.6090    2.3420 C   0  0
    3.3200   -3.4750   -0.0900 C   0  0
    0.8320   -3.6700   -0.0740 C   0  0
    4.4570   -1.3160   -0.1860 C   0  0
   -4.8440   -0.1660    0.7260 C   0  0
   -3.8890    1.6050    2.1370 C   0  0
   -3.9000   -0.6910   -1.4030 C   0  0
    4.5140   -2.7250   -0.1190 C   0  0
   -4.8500   -0.9160   -0.4300 N   0  0
    1.9510    2.1600   -1.8170 H   0  0
    0.7680    3.6050   -1.0220 H   0  0
    0.2210    3.5060    0.6270 H   0  0
    1.1700    0.3300    1.5900 H   0  0
   -0.3140    0.8050    0.9670 H   0  0
   -1.0900    2.2600   -1.7130 H   0  0
   -1.4510   -1.0680   -0.1130 H   0  0
   -0.5230   -1.6800    1.2280 H   0  0
   -0.2250   -0.8560   -2.2440 H   0  0
    0.0940    0.8180   -1.7460 H   0  0
    1.4160   -0.2190   -2.2760 H   0  0
   -1.2050    3.6370    1.5580 H   0  0
    3.1880    0.4180   -0.2910 H   0  0
   -0.4710   -2.8400   -1.5920 H   0  0
   -1.3200   -3.5270   -0.2290 H   0  0
   -2.1820    0.4370   -2.0430 H   0  0
   -2.9340    3.1890    3.2540 H   0  0
    3.3730   -4.5530   -0.0390 H   0  0
    0.7110   -4.0220    0.9510 H   0  0
    0.9590   -4.5590   -0.6940 H   0  0
    5.3710   -0.7400   -0.2030 H   0  0
   -5.6020   -0.3670    1.4730 H   0  0
   -4.6350    1.4300    2.8980 H   0  0
   -3.9180   -1.2890   -2.3030 H   0  0
    5.4690   -3.2270   -0.0900 H   0  0
  1  2  1  0
  2  3  1  0
  2  4  1  0
  2  5  1  0
  5  6  1  0
  5  7  1  0
  5  8  1  0
  7  9  1  0
  8 10  1  0
  9 11  1  0
 10 12  1  0
 10 13  1  0
 10 14  1  0
 11 15  2  0
 11 16  1  0
 12 17  2  0
 12 18  1  0
 13 19  1  0
 15 20  1  0
 15 21  1  0
 16 22  2  0
 17 23  1  0
 17 24  1  0
 18 25  2  0
 20 26  1  0
 20 27  2  0
 21 28  2  0
 23 29  2  0
 26 30  2  0
 19 24  1  0
 22 27  1  0
 25 29  1  0
 28 30  1  0
  6 31  1  0
  7 32  1  0
  7 33  1  0
  8 34  1  0
  8 35  1  0
  9 36  1  0
 13 37  1  0
 13 38  1  0
 14 39  1  0
 14 40  1  0
 14 41  1  0
 16 42  1  0
 18 43  1  0
 19 44  1  0
 19 45  1  0
 21 46  1  0
 22 47  1  0
 23 48  1  0
 24 49  1  0
 24 50  1  0
 25 51  1  0
 26 52  1  0
 27 53  1  0
 28 54  1  0
 29 55  1  0
M  END
> <Name>
CHEMBL393349

> <IC50 nM>
8.71

> <Molecule_ChEMBL_ID>
CHEMBL393349

> <Smiles>
CC1(CC(O)(CNc2cccc3cnccc23)C(F)(F)F)CCCc2ccccc21

$$$$
CHEMBL236018
  SciTegic08162514323D

 59 62  0  0  1  0            999 V2000
   -0.3880   -3.8970   -0.5010 F   0  0
   -0.6330   -2.7970   -1.2820 C   0  0
   -0.1850   -3.0320   -2.5560 F   0  0
   -1.9810   -2.5480   -1.3100 F   0  0
    0.0960   -1.5860   -0.7000 C   0  0  3  0  0  0
   -0.3660   -1.3820    0.6150 O   0  0
   -0.1540   -0.3060   -1.4990 C   0  0
    1.5780   -1.9590   -0.6340 C   0  0
   -1.5350    0.2530   -1.2220 C   0  0
    2.2970   -1.3190    0.5600 C   0  0  3  0  0  0
   -2.6570    0.0060   -2.0520 N   0  0
   -1.9430    1.0710   -0.1560 C   0  0
    2.3070    0.1670    0.3630 C   0  0
    3.7190   -1.9120    0.6690 C   0  0
    1.5360   -1.6940    1.8420 C   0  0
   -3.7310    0.6700   -1.4900 C   0  0
   -3.2620    1.2940   -0.3590 C   0  0
    3.4910    0.8680   -0.0290 C   0  0
    1.1050    0.9040    0.5560 C   0  0
    4.6430   -1.3530   -0.4120 C   0  0
    2.4690   -1.9930    3.0160 C   0  0
   -5.0810    0.7700   -1.8900 C   0  0
   -4.1180    2.0720    0.4630 C   0  0
    3.4480    2.2750   -0.2090 C   0  0
    4.7830    0.1660   -0.2500 C   0  0
    1.0760    2.3040    0.3750 C   0  0
   -5.9580    1.5430   -1.0840 C   0  0
   -5.4840    2.1950    0.0910 C   0  0
   -3.6280    2.7450    1.6770 C   0  0
    2.2480    2.9900   -0.0070 C   0  0
   -7.3460    1.6760   -1.4460 C   0  0
   -8.4630    1.7830   -1.7380 N   0  0
   -1.3270   -1.2580    0.5650 H   0  0
   -0.0450   -0.4920   -2.5680 H   0  0
    0.5970    0.4480   -1.2640 H   0  0
    1.7020   -3.0420   -0.6230 H   0  0
    2.0810   -1.7070   -1.5670 H   0  0
   -2.6630   -0.5430   -2.8800 H   0  0
   -1.3250    1.4400    0.6520 H   0  0
    3.6830   -3.0010    0.6030 H   0  0
    4.1480   -1.6840    1.6460 H   0  0
    0.8200   -0.9160    2.1070 H   0  0
    0.8650   -2.5340    1.6600 H   0  0
    0.1950    0.3980    0.8440 H   0  0
    4.2460   -1.5910   -1.4000 H   0  0
    5.6250   -1.8240   -0.3520 H   0  0
    3.1430   -1.1550    3.1950 H   0  0
    1.8970   -2.1890    3.9220 H   0  0
    3.0790   -2.8730    2.8090 H   0  0
   -5.4300    0.2760   -2.7780 H   0  0
    4.3390    2.8110   -0.5020 H   0  0
    5.4290    0.3750    0.6030 H   0  0
    5.2890    0.5740   -1.1270 H   0  0
    0.1570    2.8500    0.5300 H   0  0
   -6.1570    2.7880    0.7090 H   0  0
   -3.9610    2.2880    2.6080 H   0  0
   -3.9610    3.7820    1.6770 H   0  0
   -2.5380    2.7450    1.6770 H   0  0
    2.2270    4.0610   -0.1450 H   0  0
  1  2  1  0
  2  3  1  0
  2  4  1  0
  2  5  1  0
  5  6  1  0
  5  7  1  0
  5  8  1  0
  7  9  1  0
  8 10  1  0
  9 11  1  0
  9 12  2  0
 10 13  1  0
 10 14  1  0
 10 15  1  0
 11 16  1  0
 12 17  1  0
 13 18  2  0
 13 19  1  0
 14 20  1  0
 15 21  1  0
 16 22  1  0
 17 23  1  0
 18 24  1  0
 18 25  1  0
 19 26  2  0
 22 27  2  0
 23 28  2  0
 23 29  1  0
 24 30  2  0
 27 31  1  0
 31 32  3  0
 16 17  2  0
 20 25  1  0
 26 30  1  0
 27 28  1  0
  6 33  1  0
  7 34  1  0
  7 35  1  0
  8 36  1  0
  8 37  1  0
 11 38  1  0
 12 39  1  0
 14 40  1  0
 14 41  1  0
 15 42  1  0
 15 43  1  0
 19 44  1  0
 20 45  1  0
 20 46  1  0
 21 47  1  0
 21 48  1  0
 21 49  1  0
 22 50  1  0
 24 51  1  0
 25 52  1  0
 25 53  1  0
 26 54  1  0
 28 55  1  0
 29 56  1  0
 29 57  1  0
 29 58  1  0
 30 59  1  0
M  END
> <Name>
CHEMBL236018

> <IC50 nM>
38.9

> <Molecule_ChEMBL_ID>
CHEMBL236018

> <Smiles>
CCC1(CC(O)(Cc2cc3c(C)cc(C#N)cc3[nH]2)C(F)(F)F)CCCc2ccccc21

$$$$
CHEMBL186467
  SciTegic08162514323D

 68 71  0  0  1  0            999 V2000
   -5.7680   -2.2230   -0.3590 O   0  0
   -4.6450   -2.0060   -0.7500 C   0  0
   -3.6430   -3.0840   -0.7910 C   0  0
   -4.2290   -0.6330   -1.2090 C   0  0
   -2.3360   -2.8460   -1.0310 C   0  0
   -2.7540   -0.3200   -0.9000 C   0  0
   -1.8090   -1.4690   -1.2210 C   0  0
   -1.3670   -4.0020   -1.1020 C   0  0
   -0.5350   -1.2600   -1.6540 C   0  0
   -0.4020   -3.7830   -2.2660 C   0  0
    0.3070   -2.4180   -2.1890 C   0  0  3  0  0  0
    0.1680    0.1040   -1.6430 C   0  0  2  0  0  0
    1.7270   -2.4800   -1.5800 C   0  0  3  0  0  0
    1.7150   -0.0370   -1.5840 C   0  0
   -0.2580    1.0080   -0.4750 C   0  0
    2.0780   -1.2560   -0.7170 C   0  0  2  0  0  0
    2.2110   -3.6270   -0.6890 C   0  0
   -0.9320    2.2990   -0.9410 C   0  0
    3.5610   -1.5880   -0.4980 C   0  0  2  0  0  0
    1.3480   -1.2460    0.6390 C   0  0
    3.5230   -3.0780   -0.1090 C   0  0
   -1.8580    2.8990    0.1150 C   0  0
    4.1500   -0.7950    0.5140 O   0  0
   -1.2190    4.0680    0.8650 C   0  0
   -0.0590    3.6330    1.7620 C   0  0
    0.4320    4.7540    2.6800 C   0  0
    1.6270    4.3340    3.5350 C   0  0
    1.2460    3.3380    4.6310 C   0  0
   -3.9790   -4.0980   -0.6230 H   0  0
   -4.3930   -0.5660   -2.2850 H   0  0
   -4.8710    0.1230   -0.7540 H   0  0
   -2.4900    0.5700   -1.4690 H   0  0
   -2.6540   -0.0720    0.1560 H   0  0
   -1.8950   -4.9490   -1.2360 H   0  0
   -0.8200   -4.0740   -0.1620 H   0  0
   -0.9790   -3.8300   -3.1910 H   0  0
    0.3140   -4.6020   -2.3320 H   0  0
    0.4750   -2.1560   -3.2360 H   0  0
   -0.0960    0.6230   -2.5640 H   0  0
    2.3850   -2.5040   -2.4430 H   0  0
    2.1210   -0.1540   -2.5900 H   0  0
    2.1740    0.8670   -1.1870 H   0  0
   -0.9040    0.4670    0.2170 H   0  0
    0.5920    1.2290    0.1720 H   0  0
    2.3670   -4.5370   -1.2480 H   0  0
    1.5020   -3.8420    0.0960 H   0  0
   -0.1860    3.0290   -1.2600 H   0  0
   -1.4670    2.1370   -1.8770 H   0  0
    4.1310   -1.4410   -1.4060 H   0  0
    1.4710   -0.2970    1.1600 H   0  0
    1.7280   -2.0330    1.2870 H   0  0
    0.2790   -1.4140    0.5020 H   0  0
    3.5370   -3.2270    0.9630 H   0  0
    4.3810   -3.5940   -0.5140 H   0  0
   -2.8070    3.1990   -0.3280 H   0  0
   -2.1930    2.1330    0.8150 H   0  0
    4.1540    0.1210    0.1950 H   0  0
   -0.8970    4.8420    0.1680 H   0  0
   -1.9670    4.6130    1.4410 H   0  0
   -0.3300    2.7520    2.3420 H   0  0
    0.7620    3.2360    1.1640 H   0  0
    0.6660    5.6490    2.1040 H   0  0
   -0.3810    5.1210    3.3050 H   0  0
    2.4260    3.9360    2.9120 H   0  0
    2.1190    5.2070    3.9630 H   0  0
    2.1110    3.0940    5.2480 H   0  0
    0.4590    3.7440    5.2680 H   0  0
    0.8770    2.4100    4.1950 H   0  0
  1  2  2  0
  2  3  1  0
  2  4  1  0
  3  5  2  0
  4  6  1  0
  5  7  1  0
  5  8  1  0
  7  9  2  0
  8 10  1  0
  9 11  1  0
  9 12  1  0
 11 13  1  0
 12 14  1  0
 12 15  1  0
 13 16  1  0
 13 17  1  0
 15 18  1  0
 16 19  1  0
 16 20  1  0
 17 21  1  0
 18 22  1  0
 19 23  1  0
 22 24  1  0
 24 25  1  0
 25 26  1  0
 26 27  1  0
 27 28  1  0
  6  7  1  0
 10 11  1  0
 14 16  1  0
 19 21  1  0
  3 29  1  0
  4 30  1  0
  4 31  1  0
  6 32  1  0
  6 33  1  0
  8 34  1  0
  8 35  1  0
 10 36  1  0
 10 37  1  0
 11 38  1  0
 12 39  1  0
 13 40  1  0
 14 41  1  0
 14 42  1  0
 15 43  1  0
 15 44  1  0
 17 45  1  0
 17 46  1  0
 18 47  1  0
 18 48  1  0
 19 49  1  0
 20 50  1  0
 20 51  1  0
 20 52  1  0
 21 53  1  0
 21 54  1  0
 22 55  1  0
 22 56  1  0
 23 57  1  0
 24 58  1  0
 24 59  1  0
 25 60  1  0
 25 61  1  0
 26 62  1  0
 26 63  1  0
 27 64  1  0
 27 65  1  0
 28 66  1  0
 28 67  1  0
 28 68  1  0
M  END
> <Name>
CHEMBL186467

> <IC50 nM>
979

> <Molecule_ChEMBL_ID>
CHEMBL186467

> <Smiles>
CCCCCCCC[C@H]1C[C@@]2(C)C(CC[C@@H]2O)C2CCC3=CC(=O)CCC3=C21

$$$$
CHEMBL389795
  SciTegic08162514323D

 40 42  0  0  1  0            999 V2000
    4.7210   -2.4710    3.2380 Cl  0  0
    3.0100   -2.3910    3.2990 C   0  0
    2.3590   -2.0640    4.5060 C   0  0
    2.2520   -2.6500    2.1430 C   0  0
    0.9550   -2.0000    4.5550 C   0  0
    0.8500   -2.5860    2.1930 C   0  0
    0.1640   -1.6020    6.0220 Cl  0  0
    0.1990   -2.2620    3.3970 C   0  0
   -0.0800   -2.9080    0.7750 S   0  0
   -1.4510   -2.5060    1.0250 O   0  0
    0.0550   -4.3180    0.4530 O   0  0
    0.4240   -2.0410   -0.6460 N   0  0
    0.2380   -0.6000   -0.6680 C   0  0  2  0  0  0
    0.4180   -0.0570   -2.0860 C   0  0
    1.1680    0.0740    0.3440 C   0  0
   -0.0140    1.3930   -2.1780 C   0  0
   -1.2740    1.8850   -2.2130 C   0  0
    0.8320    2.5180   -2.2420 C   0  0
   -1.2990    3.2540   -2.2970 C   0  0
   -2.4710    1.1290   -2.1740 C   0  0
    0.0210    3.6780   -2.3160 N   0  0
   -2.5160    3.9710   -2.3480 C   0  0
   -3.7090    1.8220   -2.2210 C   0  0
   -3.7330    3.2400   -2.3090 C   0  0
    2.9410   -1.8630    5.3950 H   0  0
    2.7380   -2.8980    1.2090 H   0  0
   -0.8810   -2.2170    3.4220 H   0  0
    1.4140   -2.2420   -0.8400 H   0  0
   -0.8010   -0.5160   -0.3520 H   0  0
   -0.1520   -0.6500   -2.8010 H   0  0
    1.4550   -0.1480   -2.4060 H   0  0
    0.9120   -0.2250    1.3590 H   0  0
    2.2070   -0.1890    0.1460 H   0  0
    1.0820    1.1580    0.2830 H   0  0
    1.9140    2.5350   -2.2380 H   0  0
   -2.4530    0.0510   -2.1070 H   0  0
    0.3420    4.6150   -2.3730 H   0  0
   -2.5250    5.0490   -2.4140 H   0  0
   -4.6370    1.2700   -2.1910 H   0  0
   -4.6760    3.7620   -2.3440 H   0  0
  1  2  1  0
  2  3  2  0
  2  4  1  0
  3  5  1  0
  4  6  2  0
  5  7  1  0
  5  8  2  0
  6  9  1  0
  9 10  2  0
  9 11  2  0
  9 12  1  0
 12 13  1  0
 13 14  1  0
 13 15  1  0
 14 16  1  0
 16 17  1  0
 16 18  2  0
 17 19  1  0
 17 20  2  0
 18 21  1  0
 19 22  2  0
 20 23  1  0
 22 24  1  0
  6  8  1  0
 19 21  1  0
 23 24  2  0
  3 25  1  0
  4 26  1  0
  8 27  1  0
 12 28  1  0
 13 29  1  0
 14 30  1  0
 14 31  1  0
 15 32  1  0
 15 33  1  0
 15 34  1  0
 18 35  1  0
 20 36  1  0
 21 37  1  0
 22 38  1  0
 23 39  1  0
 24 40  1  0
M  END
> <Name>
CHEMBL389795

> <IC50 nM>
4600

> <Molecule_ChEMBL_ID>
CHEMBL389795

> <Smiles>
CC(Cc1c[nH]c2ccccc12)NS(=O)(=O)c1cc(Cl)cc(Cl)c1

$$$$
CHEMBL428366
  SciTegic08162514323D

 41 43  0  0  1  0            999 V2000
   -0.2150   -2.8440    0.7110 S   0  0
   -1.5880   -2.4430    0.9610 O   0  0
   -0.0800   -4.2540    0.3890 O   0  0
    0.2890   -1.9770   -0.7110 N   0  0
    0.7130   -2.5210    2.1330 C   0  0
    0.1040   -0.5350   -0.7320 C   0  0  2  0  0  0
    2.1190   -2.5900    2.0780 C   0  0
    0.0610   -2.1910    3.3320 C   0  0
    0.2830    0.0060   -2.1500 C   0  0
    1.0330    0.1390    0.2790 C   0  0
    2.8630   -2.3240    3.2400 C   0  0
    0.8110   -1.9300    4.4850 C   0  0
   -0.1480    1.4570   -2.2420 C   0  0
    4.2990   -2.3950    3.1740 C   0  0
    2.2150   -1.9940    4.4450 C   0  0
   -1.4080    1.9470   -2.2770 C   0  0
    0.6970    2.5820   -2.3070 C   0  0
    5.4570   -2.4530    3.1210 N   0  0
   -1.4340    3.3170   -2.3610 C   0  0
   -2.6060    1.1930   -2.2380 C   0  0
   -0.1130    3.7400   -2.3810 N   0  0
   -2.6520    4.0350   -2.4120 C   0  0
   -3.8440    1.8850   -2.2850 C   0  0
   -3.8670    3.3050   -2.3730 C   0  0
    1.2790   -2.1780   -0.9040 H   0  0
   -0.9360   -0.4510   -0.4160 H   0  0
    2.6000   -2.8460    1.1370 H   0  0
   -1.0160   -2.1430    3.3600 H   0  0
   -0.2870   -0.5880   -2.8650 H   0  0
    1.3200   -0.0860   -2.4710 H   0  0
    0.7770   -0.1600    1.2950 H   0  0
    2.0720   -0.1250    0.0820 H   0  0
    0.9450    1.2230    0.2190 H   0  0
    0.3140   -1.6780    5.4010 H   0  0
    2.7870   -1.7890    5.3380 H   0  0
    1.7790    2.6000   -2.3030 H   0  0
   -2.5900    0.1130   -2.1720 H   0  0
    0.2070    4.6800   -2.4370 H   0  0
   -2.6600    5.1130   -2.4780 H   0  0
   -4.7720    1.3320   -2.2560 H   0  0
   -4.8110    3.8260   -2.4080 H   0  0
  1  2  2  0
  1  3  2  0
  1  4  1  0
  1  5  1  0
  4  6  1  0
  5  7  2  0
  5  8  1  0
  6  9  1  0
  6 10  1  0
  7 11  1  0
  8 12  2  0
  9 13  1  0
 11 14  1  0
 11 15  2  0
 13 16  1  0
 13 17  2  0
 14 18  3  0
 16 19  1  0
 16 20  2  0
 17 21  1  0
 19 22  2  0
 20 23  1  0
 22 24  1  0
 12 15  1  0
 19 21  1  0
 23 24  2  0
  4 25  1  0
  6 26  1  0
  7 27  1  0
  8 28  1  0
  9 29  1  0
  9 30  1  0
 10 31  1  0
 10 32  1  0
 10 33  1  0
 12 34  1  0
 15 35  1  0
 17 36  1  0
 20 37  1  0
 21 38  1  0
 22 39  1  0
 23 40  1  0
 24 41  1  0
M  END
> <Name>
CHEMBL428366

> <IC50 nM>
10000

> <Molecule_ChEMBL_ID>
CHEMBL428366

> <Smiles>
CC(Cc1c[nH]c2ccccc12)NS(=O)(=O)c1cccc(C#N)c1

$$$$
CHEMBL256787
  SciTegic08162514323D

 50 53  0  0  1  0            999 V2000
   -0.6680    2.5720   -0.2790 Cl  0  0
   -0.0920    1.0180    0.2280 C   0  0
   -1.0100   -0.0680    0.3240 C   0  0
    1.2930    0.8050    0.5410 C   0  0
   -2.4390    0.1020    0.0760 C   0  0
   -0.5590   -1.3590    0.6640 C   0  0
    1.7540   -0.5330    0.7990 C   0  0
    2.2620    1.9590    0.5860 C   0  0  2  0  0  0
   -3.0630   -0.4840   -1.0570 C   0  0
   -3.2310    0.8630    0.9760 C   0  0
    0.8110   -1.6000    0.8870 C   0  0
    3.0820   -0.8010    0.9530 N   0  0
    3.6390    1.5780    1.1620 C   0  0
    1.7460    3.1480    1.4120 C   0  0
   -2.5720   -1.2680   -2.0940 N   0  0
   -4.4060   -0.3220   -1.2890 C   0  0
   -4.6190    1.0290    0.7300 C   0  0
    1.2190   -2.9840    1.2010 C   0  0
    4.1310    0.2110    0.6780 C   0  0
   -3.6640   -1.5630   -2.9450 C   0  0
   -4.8150   -0.9530   -2.4140 C   0  0
   -5.2210    0.4340   -0.4100 C   0  0
    5.4160   -0.1720    1.4240 C   0  0
    4.4120    0.2340   -0.8280 C   0  0
   -6.2130   -1.0060   -2.9980 C   0  0
   -1.2600   -2.1800    0.7520 H   0  0
    2.4080    2.2910   -0.4430 H   0  0
   -2.7870    1.3220    1.8500 H   0  0
    3.3890   -1.7110    1.2340 H   0  0
    3.5820    1.5660    2.2520 H   0  0
    4.3690    2.3520    0.9140 H   0  0
    1.3240    3.9140    0.7620 H   0  0
    0.9820    2.8240    2.1190 H   0  0
    2.5570    3.6020    1.9800 H   0  0
   -1.6350   -1.5660   -2.2190 H   0  0
   -5.2210    1.6090    1.4160 H   0  0
    1.7270   -3.0960    2.1600 H   0  0
    1.8890   -3.3520    0.4260 H   0  0
    0.3400   -3.6290    1.2150 H   0  0
   -3.5840   -2.1600   -3.8440 H   0  0
   -6.2790    0.5630   -0.5920 H   0  0
    5.2600   -0.2250    2.5020 H   0  0
    6.2010    0.5590    1.2360 H   0  0
    5.7770   -1.1470    1.0920 H   0  0
    3.5160    0.4650   -1.4040 H   0  0
    4.7870   -0.7300   -1.1660 H   0  0
    5.1640    0.9860   -1.0670 H   0  0
   -6.9610   -0.4630   -2.4220 H   0  0
   -6.5370   -2.0450   -3.0700 H   0  0
   -6.2010   -0.5900   -4.0060 H   0  0
  1  2  1  0
  2  3  2  0
  2  4  1  0
  3  5  1  0
  3  6  1  0
  4  7  2  0
  4  8  1  0
  5  9  2  0
  5 10  1  0
  6 11  2  0
  7 12  1  0
  8 13  1  0
  8 14  1  0
  9 15  1  0
  9 16  1  0
 10 17  2  0
 11 18  1  0
 12 19  1  0
 15 20  1  0
 16 21  1  0
 16 22  2  0
 19 23  1  0
 19 24  1  0
 21 25  1  0
  7 11  1  0
 13 19  1  0
 17 22  1  0
 20 21  2  0
  6 26  1  0
  8 27  1  0
 10 28  1  0
 12 29  1  0
 13 30  1  0
 13 31  1  0
 14 32  1  0
 14 33  1  0
 14 34  1  0
 15 35  1  0
 17 36  1  0
 18 37  1  0
 18 38  1  0
 18 39  1  0
 20 40  1  0
 22 41  1  0
 23 42  1  0
 23 43  1  0
 23 44  1  0
 24 45  1  0
 24 46  1  0
 24 47  1  0
 25 48  1  0
 25 49  1  0
 25 50  1  0
M  END
> <Name>
CHEMBL256787

> <IC50 nM>
5.3

> <Molecule_ChEMBL_ID>
CHEMBL256787

> <Smiles>
Cc1cc(-c2cccc3c(C)c[nH]c23)c(Cl)c2c1NC(C)(C)CC2C

$$$$
CHEMBL3358946
  SciTegic08162514323D

 57 59  0  0  1  0            999 V2000
    6.4960   -2.6780    1.8010 S   0  0
    6.5660   -3.4570    0.5780 O   0  0
    6.4790   -3.4960    3.0000 O   0  0
    5.0610   -1.7460    1.7640 C   0  0
    7.9080   -1.5820    1.8710 C   0  0
    5.1540   -0.3590    1.8170 N   0  0
    3.8010   -2.4140    1.6820 C   0  0
    3.9770    0.3570    1.7830 C   0  0
    2.6250   -1.6110    1.6540 C   0  0
    2.7030   -0.2440    1.7030 C   0  0
    1.3480   -2.0490    1.5800 C   0  0
    1.4080    0.2440    1.6580 N   0  0
    0.5530   -0.8850    1.5820 C   0  0
   -0.9550   -0.7790    1.5180 C   0  0
   -1.4690   -1.0310    0.1000 C   0  0  2  0  0  0
   -2.8440   -0.7270    0.0650 O   0  0
   -1.2890   -2.4840   -0.3420 C   0  0
   -0.7600   -0.1680   -0.9470 C   0  0
    0.0040   -2.6820   -0.7540 F   0  0
   -2.1450   -2.7560   -1.3790 F   0  0
   -1.5670   -3.3180    0.7090 F   0  0
   -1.4080    1.2070   -1.1110 C   0  0
   -2.7360    1.1130   -1.7730 C   0  0
   -1.4880    1.9820    0.2050 C   0  0
   -0.7770    2.0250   -2.2380 C   0  0
   -3.6700    2.1660   -1.6780 C   0  0
   -3.0610   -0.0450   -2.5020 C   0  0
   -3.3460    3.4060   -0.9060 C   0  0
   -4.9200    2.0530   -2.3120 C   0  0
   -4.3110   -0.1540   -3.1350 C   0  0
   -2.5180    4.1900   -1.3090 O   0  0
   -4.0040    3.6410    0.2660 N   0  0
   -5.2400    0.8950   -3.0410 C   0  0
   -6.4240    0.7910   -3.6410 F   0  0
    7.9840   -0.8950    1.0270 H   0  0
    8.8240   -2.1720    1.9020 H   0  0
    7.8610   -0.9860    2.7830 H   0  0
    3.7480   -3.4920    1.6430 H   0  0
    4.0350    1.4360    1.8220 H   0  0
    1.0020   -3.0740    1.5310 H   0  0
    1.1310    1.1990    1.6760 H   0  0
   -1.4010   -1.4840    2.2190 H   0  0
   -1.2660    0.2050    1.8690 H   0  0
   -3.2170   -0.9980    0.9180 H   0  0
    0.2990   -0.0700   -0.7130 H   0  0
   -0.7090   -0.6880   -1.9040 H   0  0
   -1.4080    3.0590    0.0490 H   0  0
   -0.6860    1.6840    0.8790 H   0  0
   -2.4360    1.7890    0.7090 H   0  0
   -1.4080    2.8750   -2.4980 H   0  0
    0.2070    2.3910   -1.9470 H   0  0
   -0.6540    1.4160   -3.1350 H   0  0
   -2.3520   -0.8550   -2.5800 H   0  0
   -5.6390    2.8570   -2.2420 H   0  0
   -4.5530   -1.0470   -3.6930 H   0  0
   -3.8220    4.4550    0.8180 H   0  0
   -4.6900    2.9920    0.5980 H   0  0
  1  2  2  0
  1  3  2  0
  1  4  1  0
  1  5  1  0
  4  6  2  0
  4  7  1  0
  6  8  1  0
  7  9  2  0
  8 10  2  0
  9 11  1  0
 10 12  1  0
 11 13  2  0
 13 14  1  0
 14 15  1  0
 15 16  1  0
 15 17  1  0
 15 18  1  0
 17 19  1  0
 17 20  1  0
 17 21  1  0
 18 22  1  0
 22 23  1  0
 22 24  1  0
 22 25  1  0
 23 26  2  0
 23 27  1  0
 26 28  1  0
 26 29  1  0
 27 30  2  0
 28 31  2  0
 28 32  1  0
 29 33  2  0
 33 34  1  0
  9 10  1  0
 12 13  1  0
 30 33  1  0
  5 35  1  0
  5 36  1  0
  5 37  1  0
  7 38  1  0
  8 39  1  0
 11 40  1  0
 12 41  1  0
 14 42  1  0
 14 43  1  0
 16 44  1  0
 18 45  1  0
 18 46  1  0
 24 47  1  0
 24 48  1  0
 24 49  1  0
 25 50  1  0
 25 51  1  0
 25 52  1  0
 27 53  1  0
 29 54  1  0
 30 55  1  0
 32 56  1  0
 32 57  1  0
M  END
> <Name>
CHEMBL3358946

> <IC50 nM>
120

> <Molecule_ChEMBL_ID>
CHEMBL3358946

> <Smiles>
CC(C)(CC(O)(Cc1cc2cc(S(C)(=O)=O)ncc2[nH]1)C(F)(F)F)c1ccc(F)cc1C(N)=O

$$$$
CHEMBL3358950
  SciTegic08162514323D

 60 62  0  0  1  0            999 V2000
    5.1880   -1.2950    1.4860 S   0  0
    5.2660   -1.9650    2.7720 O   0  0
    5.1660   -2.2150    0.3610 O   0  0
    3.7540   -0.3650    1.4490 C   0  0
    6.6000   -0.2110    1.3140 C   0  0
    3.8460    1.0230    1.5000 N   0  0
    2.4920   -1.0310    1.3670 C   0  0
    7.9000   -1.0080    1.3890 C   0  0
    2.6680    1.7380    1.4690 C   0  0
    1.3160   -0.2300    1.3400 C   0  0
    1.3950    1.1390    1.3890 C   0  0
    0.0410   -0.6660    1.2660 C   0  0
    0.1020    1.6270    1.3440 N   0  0
   -0.7560    0.4960    1.2680 C   0  0
   -2.2640    0.6040    1.2010 C   0  0
   -2.9060   -0.7680    0.9840 C   0  0  2  0  0  0
   -4.3050   -0.5960    0.9320 O   0  0
   -2.5740   -1.6050    2.2170 C   0  0
   -2.4570   -1.4300   -0.3180 C   0  0
   -3.7270   -1.8870    2.9040 F   0  0
   -1.7170   -0.9060    3.0270 F   0  0
   -1.9790   -2.7770    1.8260 F   0  0
   -2.8990   -0.6520   -1.5590 C   0  0
   -1.6740    0.1930   -1.6000 C   0  0
   -3.0140   -1.5370   -2.8010 C   0  0
   -4.1520    0.1880   -1.3140 C   0  0
   -1.7680    1.6000   -1.6700 C   0  0
   -0.4100   -0.4240   -1.5680 C   0  0
   -3.1020    2.2750   -1.7050 C   0  0
   -0.5960    2.3770   -1.7090 C   0  0
    0.7580    0.3570   -1.6070 C   0  0
   -3.6490    2.6250   -0.6860 O   0  0
   -3.6950    2.4940   -2.9160 N   0  0
    0.6660    1.7580   -1.6780 C   0  0
    1.7710    2.4960   -1.7130 F   0  0
    6.5310    0.3280    0.3690 H   0  0
    6.5680    0.5510    2.0960 H   0  0
    2.4390   -2.1090    1.3260 H   0  0
    8.1660   -1.4020    0.4080 H   0  0
    8.7170   -0.3850    1.7540 H   0  0
    7.7970   -1.8540    2.0700 H   0  0
    2.7290    2.8160    1.5080 H   0  0
   -0.3050   -1.6910    1.2150 H   0  0
   -0.1760    2.5800    1.3610 H   0  0
   -2.5450    1.2910    0.4040 H   0  0
   -2.6350    1.0630    2.1170 H   0  0
   -4.6970   -1.4750    0.8220 H   0  0
   -2.8050   -2.4610   -0.3670 H   0  0
   -1.3770   -1.5780   -0.3220 H   0  0
   -2.1170   -2.1370   -2.9550 H   0  0
   -3.1660   -0.9300   -3.6930 H   0  0
   -3.8590   -2.2170   -2.7110 H   0  0
   -4.0200    0.8850   -0.4880 H   0  0
   -5.0040   -0.4530   -1.0760 H   0  0
   -4.4080    0.7660   -2.2010 H   0  0
   -0.3320   -1.4980   -1.5160 H   0  0
   -0.6620    3.4550   -1.7620 H   0  0
    1.7250   -0.1230   -1.5820 H   0  0
   -3.2640    2.2110   -3.7730 H   0  0
   -4.5860    2.9450   -2.9650 H   0  0
  1  2  2  0
  1  3  2  0
  1  4  1  0
  1  5  1  0
  4  6  2  0
  4  7  1  0
  5  8  1  0
  6  9  1  0
  7 10  2  0
  9 11  2  0
 10 12  1  0
 11 13  1  0
 12 14  2  0
 14 15  1  0
 15 16  1  0
 16 17  1  0
 16 18  1  0
 16 19  1  0
 18 20  1  0
 18 21  1  0
 18 22  1  0
 19 23  1  0
 23 24  1  0
 23 25  1  0
 23 26  1  0
 24 27  2  0
 24 28  1  0
 27 29  1  0
 27 30  1  0
 28 31  2  0
 29 32  2  0
 29 33  1  0
 30 34  2  0
 34 35  1  0
 10 11  1  0
 13 14  1  0
 31 34  1  0
  5 36  1  0
  5 37  1  0
  7 38  1  0
  8 39  1  0
  8 40  1  0
  8 41  1  0
  9 42  1  0
 12 43  1  0
 13 44  1  0
 15 45  1  0
 15 46  1  0
 17 47  1  0
 19 48  1  0
 19 49  1  0
 25 50  1  0
 25 51  1  0
 25 52  1  0
 26 53  1  0
 26 54  1  0
 26 55  1  0
 28 56  1  0
 30 57  1  0
 31 58  1  0
 33 59  1  0
 33 60  1  0
M  END
> <Name>
CHEMBL3358950

> <IC50 nM>
46

> <Molecule_ChEMBL_ID>
CHEMBL3358950

> <Smiles>
CCS(=O)(=O)c1cc2cc(CC(O)(CC(C)(C)c3ccc(F)cc3C(N)=O)C(F)(F)F)[nH]c2cn1

$$$$
CHEMBL1684342
  SciTegic08162514323D

 62 66  0  0  1  0            999 V2000
    7.8770    1.6250   -1.0780 Cl  0  0
    6.3930    0.9240   -0.5760 C   0  0
    5.7090    1.1390    0.5740 C   0  0
    5.6370   -0.0080   -1.3090 C   0  0
    4.5510    0.3990    0.6330 C   0  0
    6.0780    2.0040    1.6370 C   0  0
    4.4860   -0.3320   -0.5490 N   0  0
    3.6870    0.4730    1.7540 C   0  0
    5.2290    2.0940    2.7700 C   0  0
    2.4610   -0.3120    1.8150 C   0  0
    4.0330    1.3280    2.8320 C   0  0
    1.2030    0.3420    1.8580 C   0  0
    2.5290   -1.7260    1.8320 C   0  0
    1.1370    1.6760    1.8460 F   0  0
    0.0020   -0.4200    1.9140 C   0  0
    3.7010   -2.3630    1.7950 F   0  0
    1.3400   -2.4860    1.8870 C   0  0
    0.0700   -1.8500    1.9300 C   0  0
   -1.3150    0.2770    1.9610 C   0  0  1  0  0  0
   -1.0530   -2.6130    1.9810 N   0  0
   -2.4490   -0.6210    1.4320 C   0  0  2  0  0  0
   -1.5980    0.7850    3.3790 C   0  0
   -2.4220   -2.0330    2.0630 C   0  0
   -2.3220   -0.7300    0.0180 O   0  0
   -3.4020   -2.9550    1.3280 C   0  0
   -2.8300   -1.9750    3.5370 C   0  0
   -2.7270    0.3690   -0.6130 C   0  0
   -3.2090    1.3260   -0.0570 O   0  0
   -2.5650    0.3690   -1.9690 N   0  0
   -2.9840    1.5430   -2.7460 C   0  0
   -2.6450    1.3990   -4.1860 C   0  0
   -3.6430    1.0490   -5.1130 C   0  0
   -1.3240    1.6100   -4.6230 C   0  0
   -3.3200    0.9120   -6.4750 C   0  0
   -1.0040    1.4710   -5.9840 C   0  0
   -2.0000    1.1230   -6.9100 C   0  0
    5.8540   -0.4300   -2.2810 H   0  0
    6.9840    2.5900    1.6000 H   0  0
    3.7700   -0.9670   -0.8160 H   0  0
    5.4920    2.7460    3.5900 H   0  0
    3.3980    1.4080    3.7050 H   0  0
    1.4120   -3.5640    1.8990 H   0  0
   -1.2740    1.1520    1.3090 H   0  0
   -0.9770   -3.6130    1.9670 H   0  0
   -3.4140   -0.1460    1.6210 H   0  0
   -1.2050    1.7930    3.5140 H   0  0
   -2.6700    0.7910    3.5780 H   0  0
   -1.1250    0.1410    4.1210 H   0  0
   -3.1310   -3.0880    0.2810 H   0  0
   -4.4120   -2.5470    1.3590 H   0  0
   -3.4280   -3.9390    1.7930 H   0  0
   -2.0100   -1.6460    4.1740 H   0  0
   -3.1520   -2.9550    3.8870 H   0  0
   -3.6600   -1.2810    3.6820 H   0  0
   -2.1640   -0.4280   -2.4220 H   0  0
   -2.4960    2.4320   -2.3460 H   0  0
   -4.0610    1.6780   -2.6390 H   0  0
   -4.6580    0.8870   -4.7850 H   0  0
   -0.5530    1.8770   -3.9160 H   0  0
   -4.0880    0.6450   -7.1880 H   0  0
    0.0120    1.6330   -6.3180 H   0  0
   -1.7540    1.0180   -7.9570 H   0  0
  1  2  1  0
  2  3  1  0
  2  4  2  0
  3  5  1  0
  3  6  2  0
  4  7  1  0
  5  8  2  0
  6  9  1  0
  8 10  1  0
  8 11  1  0
 10 12  2  0
 10 13  1  0
 12 14  1  0
 12 15  1  0
 13 16  1  0
 13 17  2  0
 15 18  2  0
 15 19  1  0
 18 20  1  0
 19 21  1  0
 19 22  1  0
 20 23  1  0
 21 24  1  0
 23 25  1  0
 23 26  1  0
 24 27  1  0
 27 28  2  0
 27 29  1  0
 29 30  1  0
 30 31  1  0
 31 32  2  0
 31 33  1  0
 32 34  1  0
 33 35  2  0
 34 36  2  0
  5  7  1  0
  9 11  2  0
 17 18  1  0
 21 23  1  0
 35 36  1  0
  4 37  1  0
  6 38  1  0
  7 39  1  0
  9 40  1  0
 11 41  1  0
 17 42  1  0
 19 43  1  0
 20 44  1  0
 21 45  1  0
 22 46  1  0
 22 47  1  0
 22 48  1  0
 25 49  1  0
 25 50  1  0
 25 51  1  0
 26 52  1  0
 26 53  1  0
 26 54  1  0
 29 55  1  0
 30 56  1  0
 30 57  1  0
 32 58  1  0
 33 59  1  0
 34 60  1  0
 35 61  1  0
 36 62  1  0
M  END
> <Name>
CHEMBL1684342

> <IC50 nM>
40

> <Molecule_ChEMBL_ID>
CHEMBL1684342

> <Smiles>
C[C@H]1c2c(cc(F)c(-c3cccc4c(Cl)c[nH]c34)c2F)NC(C)(C)[C@@H]1OC(=O)NCc1ccccc1

$$$$
CHEMBL1684352
  SciTegic08162514323D

 60 64  0  0  1  0            999 V2000
    1.3670    1.2260    1.4120 F   0  0
    1.4320   -0.1060    1.4240 C   0  0
    2.6890   -0.7620    1.3830 C   0  0
    0.2320   -0.8690    1.4800 C   0  0
    2.7600   -2.1760    1.3980 C   0  0
    3.9180    0.0250    1.3220 C   0  0
    0.3010   -2.2970    1.4960 C   0  0
   -1.0840   -0.1700    1.5270 C   0  0  1  0  0  0
    3.9320   -2.8130    1.3610 F   0  0
    1.5680   -2.9340    1.4550 C   0  0
    4.2400    0.7970    0.1760 C   0  0
    4.8160    0.0250    2.4240 C   0  0
   -0.8220   -3.0630    1.5470 N   0  0
   -2.2210   -1.0690    1.0000 C   0  0  2  0  0  0
   -1.3670    0.3360    2.9470 C   0  0
    3.5880    1.0020   -1.0310 N   0  0
    5.3980    1.5350    0.1230 C   0  0
    6.0120    0.7890    2.3610 C   0  0
   -2.1910   -2.4810    1.6290 C   0  0
   -2.0920   -1.1780   -0.4140 O   0  0
    4.3910    1.8810   -1.8010 C   0  0
    6.3130    1.5550    1.2030 C   0  0
    5.5330    2.2010   -1.0450 C   0  0
   -3.1740   -3.4030    0.8940 C   0  0
   -2.6020   -2.4220    3.1050 C   0  0
   -2.4920   -0.0780   -1.0450 C   0  0
   -2.9900    0.8730   -0.4900 O   0  0
   -2.3090   -0.0680   -2.4010 N   0  0
   -2.6910    1.0210   -3.1350 C   0  0
   -3.8930    1.6910   -2.8320 C   0  0
   -1.8810    1.4760   -4.1940 C   0  0
   -4.2870    2.8100   -3.5880 C   0  0
   -2.2720    2.5980   -4.9510 C   0  0
   -3.4730    3.2600   -4.6430 C   0  0
   -3.8750    4.4040   -5.4160 C   0  0
   -4.1970    5.3280   -6.0390 N   0  0
   -1.0450    0.7050    0.8770 H   0  0
    1.6410   -4.0140    1.4670 H   0  0
    4.6040   -0.5510    3.3120 H   0  0
   -0.7460   -4.0610    1.5350 H   0  0
   -3.1840   -0.5940    1.1870 H   0  0
   -0.8930    1.3030    3.1130 H   0  0
   -2.4410    0.4350    3.1130 H   0  0
   -0.9790   -0.3600    3.6890 H   0  0
    2.7190    0.6090   -1.3110 H   0  0
    6.6930    0.7910    3.1970 H   0  0
    4.1350    2.2210   -2.7950 H   0  0
    7.2230    2.1350    1.1580 H   0  0
    6.3440    2.8510   -1.3460 H   0  0
   -2.9040   -3.5310   -0.1520 H   0  0
   -4.1840   -2.9980    0.9320 H   0  0
   -3.1930   -4.3910    1.3570 H   0  0
   -1.7580   -2.1820    3.7520 H   0  0
   -3.0080   -3.3810    3.4320 H   0  0
   -3.3690   -1.6640    3.2620 H   0  0
   -1.8970   -0.8600   -2.8540 H   0  0
   -4.5270    1.3590   -2.0240 H   0  0
   -0.9550    0.9780   -4.4420 H   0  0
   -5.2110    3.3160   -3.3440 H   0  0
   -1.6410    2.9350   -5.7600 H   0  0
  1  2  1  0
  2  3  2  0
  2  4  1  0
  3  5  1  0
  3  6  1  0
  4  7  2  0
  4  8  1  0
  5  9  1  0
  5 10  2  0
  6 11  2  0
  6 12  1  0
  7 13  1  0
  8 14  1  0
  8 15  1  0
 11 16  1  0
 11 17  1  0
 12 18  2  0
 13 19  1  0
 14 20  1  0
 16 21  1  0
 17 22  2  0
 17 23  1  0
 19 24  1  0
 19 25  1  0
 20 26  1  0
 26 27  2  0
 26 28  1  0
 28 29  1  0
 29 30  2  0
 29 31  1  0
 30 32  1  0
 31 33  2  0
 32 34  2  0
 34 35  1  0
 35 36  3  0
  7 10  1  0
 14 19  1  0
 18 22  1  0
 21 23  2  0
 33 34  1  0
  8 37  1  0
 10 38  1  0
 12 39  1  0
 13 40  1  0
 14 41  1  0
 15 42  1  0
 15 43  1  0
 15 44  1  0
 16 45  1  0
 18 46  1  0
 21 47  1  0
 22 48  1  0
 23 49  1  0
 24 50  1  0
 24 51  1  0
 24 52  1  0
 25 53  1  0
 25 54  1  0
 25 55  1  0
 28 56  1  0
 30 57  1  0
 31 58  1  0
 32 59  1  0
 33 60  1  0
M  END
> <Name>
CHEMBL1684352

> <IC50 nM>
16

> <Molecule_ChEMBL_ID>
CHEMBL1684352

> <Smiles>
C[C@H]1c2c(cc(F)c(-c3cccc4cc[nH]c34)c2F)NC(C)(C)[C@@H]1OC(=O)Nc1ccc(C#N)cc1

$$$$
CHEMBL1684355
  SciTegic08162514323D

 65 69  0  0  1  0            999 V2000
    1.7850    0.7620    1.8610 F   0  0
    1.8520   -0.5700    1.8750 C   0  0
    3.1100   -1.2270    1.8320 C   0  0
    0.6530   -1.3340    1.9320 C   0  0
    3.1780   -2.6410    1.8480 C   0  0
    4.3360   -0.4410    1.7720 C   0  0
    0.7190   -2.7620    1.9450 C   0  0
   -0.6640   -0.6350    1.9770 C   0  0  1  0  0  0
    4.3500   -3.2770    1.8130 F   0  0
    1.9880   -3.3990    1.9040 C   0  0
    4.6190    0.3940    0.6620 C   0  0
    5.2720   -0.5060    2.8380 C   0  0
   -0.4040   -3.5270    1.9960 N   0  0
   -1.8010   -1.5330    1.4490 C   0  0  2  0  0  0
   -0.9490   -0.1290    3.3970 C   0  0
    3.9240    0.6680   -0.5100 N   0  0
    5.7760    1.1310    0.6080 C   0  0
    6.4690    0.2600    2.7760 C   0  0
   -1.7730   -2.9450    2.0800 C   0  0
   -1.6740   -1.6430    0.0350 O   0  0
    4.7010    1.5880   -1.2560 C   0  0
    6.7310    1.0880    1.6540 C   0  0
    5.8710    1.8630   -0.5230 C   0  0
   -2.7540   -3.8670    1.3460 C   0  0
   -2.1820   -2.8870    3.5550 C   0  0
   -2.0800   -0.5450   -0.5960 C   0  0
   -2.5660    0.4100   -0.0390 O   0  0
   -1.9180   -0.5450   -1.9530 N   0  0
   -2.3070    0.5430   -2.6870 C   0  0
   -1.5100    0.9940   -3.7580 C   0  0
   -3.5060    1.2130   -2.3790 C   0  0
   -1.9100    2.1110   -4.5120 C   0  0
   -3.9060    2.3280   -3.1350 C   0  0
   -3.1070    2.7790   -4.2010 C   0  0
   -3.5330    3.9650   -5.0040 C   0  0
   -2.8590    4.3650   -5.9240 O   0  0
   -4.6800    4.5210   -4.6270 O   0  0
   -5.0230    5.6450   -5.4260 C   0  0
   -0.6250    0.2400    1.3260 H   0  0
    2.0610   -4.4790    1.9160 H   0  0
    5.0900   -1.1310    3.7010 H   0  0
   -0.3280   -4.5260    1.9850 H   0  0
   -2.7660   -1.0590    1.6390 H   0  0
   -0.5780    0.8850    3.5470 H   0  0
   -0.4740   -0.7720    4.1370 H   0  0
   -2.0190   -0.1230    3.5960 H   0  0
    3.0430    0.2930   -0.7790 H   0  0
    7.1800    0.2110    3.5860 H   0  0
    4.4100    1.9840   -2.2190 H   0  0
    7.6410    1.6700    1.6100 H   0  0
    6.6740    2.5270   -0.8180 H   0  0
   -2.4880   -3.9900    0.2950 H   0  0
   -3.7660   -3.4650    1.3890 H   0  0
   -2.7690   -4.8580    1.8030 H   0  0
   -3.0060   -2.1930    3.7210 H   0  0
   -1.3460   -2.5670    4.1740 H   0  0
   -2.4980   -3.8690    3.9060 H   0  0
   -1.5150   -1.3380   -2.4120 H   0  0
   -0.5840    0.4940   -4.0100 H   0  0
   -4.1330    0.8810   -1.5620 H   0  0
   -1.2910    2.4510   -5.3300 H   0  0
   -4.8280    2.8360   -2.8910 H   0  0
   -6.0040    5.9980   -5.1110 H   0  0
   -4.2090    6.3670   -5.3650 H   0  0
   -5.1010    5.3160   -6.4610 H   0  0
  1  2  1  0
  2  3  2  0
  2  4  1  0
  3  5  1  0
  3  6  1  0
  4  7  2  0
  4  8  1  0
  5  9  1  0
  5 10  2  0
  6 11  2  0
  6 12  1  0
  7 13  1  0
  8 14  1  0
  8 15  1  0
 11 16  1  0
 11 17  1  0
 12 18  2  0
 13 19  1  0
 14 20  1  0
 16 21  1  0
 17 22  2  0
 17 23  1  0
 19 24  1  0
 19 25  1  0
 20 26  1  0
 26 27  2  0
 26 28  1  0
 28 29  1  0
 29 30  2  0
 29 31  1  0
 30 32  1  0
 31 33  2  0
 32 34  2  0
 34 35  1  0
 35 36  2  0
 35 37  1  0
 37 38  1  0
  7 10  1  0
 14 19  1  0
 18 22  1  0
 21 23  2  0
 33 34  1  0
  8 39  1  0
 10 40  1  0
 12 41  1  0
 13 42  1  0
 14 43  1  0
 15 44  1  0
 15 45  1  0
 15 46  1  0
 16 47  1  0
 18 48  1  0
 21 49  1  0
 22 50  1  0
 23 51  1  0
 24 52  1  0
 24 53  1  0
 24 54  1  0
 25 55  1  0
 25 56  1  0
 25 57  1  0
 28 58  1  0
 30 59  1  0
 31 60  1  0
 32 61  1  0
 33 62  1  0
 38 63  1  0
 38 64  1  0
 38 65  1  0
M  END
> <Name>
CHEMBL1684355

> <IC50 nM>
16

> <Molecule_ChEMBL_ID>
CHEMBL1684355

> <Smiles>
COC(=O)c1ccc(NC(=O)O[C@@H]2[C@@H](C)c3c(cc(F)c(-c4cccc5cc[nH]c45)c3F)NC2(C)C)cc1

$$$$
CHEMBL1684359
  SciTegic08162514323D

 64 68  0  0  1  0            999 V2000
    1.5960    1.2600    1.8850 F   0  0
    1.6620   -0.0720    1.8960 C   0  0
    2.9200   -0.7270    1.8540 C   0  0
    0.4610   -0.8340    1.9530 C   0  0
    2.9880   -2.1430    1.8710 C   0  0
    4.1470    0.0570    1.7930 C   0  0
    0.5290   -2.2640    1.9690 C   0  0
   -0.8550   -0.1370    2.0000 C   0  0  1  0  0  0
    4.1600   -2.7790    1.8340 F   0  0
    1.7990   -2.9000    1.9260 C   0  0
    5.0140   -0.0200    0.6740 C   0  0
    4.4900    0.9180    2.8690 C   0  0
   -0.5940   -3.0290    2.0200 N   0  0
   -1.9900   -1.0350    1.4710 C   0  0  2  0  0  0
   -1.1390    0.3690    3.4180 C   0  0
    4.9570   -0.7500   -0.5080 N   0  0
    6.1680    0.7190    0.6210 C   0  0
    5.6880    1.6820    2.8090 C   0  0
   -1.9630   -2.4470    2.1020 C   0  0
   -1.8630   -1.1450    0.0570 O   0  0
    6.1110   -0.4200   -1.2600 C   0  0
    6.5410    1.5860    1.6760 C   0  0
    6.8610    0.5140   -0.5200 C   0  0
   -2.9430   -3.3690    1.3670 C   0  0
   -2.3710   -2.3890    3.5760 C   0  0
   -2.2700   -0.0470   -0.5740 C   0  0
   -2.7560    0.9080   -0.0180 O   0  0
   -2.1090   -0.0470   -1.9320 N   0  0
   -2.5000    1.0390   -2.6660 C   0  0
   -3.1450    0.8610   -3.9060 C   0  0
   -2.2560    2.3400   -2.1860 C   0  0
   -3.5450    1.9790   -4.6600 C   0  0
   -2.6560    3.4550   -2.9410 C   0  0
   -4.2290    1.7890   -5.9750 C   0  0
   -3.2990    3.2770   -4.1760 C   0  0
   -4.4470    0.6820   -6.4060 O   0  0
   -4.6370    3.0160   -6.7440 C   0  0
   -0.8140    0.7380    1.3480 H   0  0
    1.8710   -3.9810    1.9370 H   0  0
    3.8540    1.0020    3.7380 H   0  0
   -0.5180   -4.0270    2.0060 H   0  0
   -2.9550   -0.5610    1.6600 H   0  0
   -0.7500    1.3790    3.5530 H   0  0
   -2.2110    0.3730    3.6190 H   0  0
   -0.6620   -0.2710    4.1600 H   0  0
    4.2440   -1.3850   -0.7810 H   0  0
    5.9510    2.3360    3.6250 H   0  0
    6.3400   -0.8360   -2.2310 H   0  0
    7.4510    2.1660    1.6330 H   0  0
    7.8010    0.9670   -0.8160 H   0  0
   -2.6800   -3.4920    0.3160 H   0  0
   -3.9570   -2.9690    1.4100 H   0  0
   -2.9590   -4.3590    1.8240 H   0  0
   -1.5510   -2.0590    4.2130 H   0  0
   -2.6910   -3.3710    3.9280 H   0  0
   -3.2030   -1.6990    3.7190 H   0  0
   -1.7070   -0.8420   -2.3870 H   0  0
   -3.3360   -0.1350   -4.2850 H   0  0
   -1.7620    2.4980   -1.2360 H   0  0
   -2.4690    4.4530   -2.5700 H   0  0
   -3.6040    4.1410   -4.7500 H   0  0
   -5.1290    2.7930   -7.6920 H   0  0
   -3.7600    3.6270   -6.9610 H   0  0
   -5.3220    3.6170   -6.1470 H   0  0
  1  2  1  0
  2  3  2  0
  2  4  1  0
  3  5  1  0
  3  6  1  0
  4  7  2  0
  4  8  1  0
  5  9  1  0
  5 10  2  0
  6 11  2  0
  6 12  1  0
  7 13  1  0
  8 14  1  0
  8 15  1  0
 11 16  1  0
 11 17  1  0
 12 18  2  0
 13 19  1  0
 14 20  1  0
 16 21  1  0
 17 22  2  0
 17 23  1  0
 19 24  1  0
 19 25  1  0
 20 26  1  0
 26 27  2  0
 26 28  1  0
 28 29  1  0
 29 30  2  0
 29 31  1  0
 30 32  1  0
 31 33  2  0
 32 34  1  0
 32 35  2  0
 34 36  2  0
 34 37  1  0
  7 10  1  0
 14 19  1  0
 18 22  1  0
 21 23  2  0
 33 35  1  0
  8 38  1  0
 10 39  1  0
 12 40  1  0
 13 41  1  0
 14 42  1  0
 15 43  1  0
 15 44  1  0
 15 45  1  0
 16 46  1  0
 18 47  1  0
 21 48  1  0
 22 49  1  0
 23 50  1  0
 24 51  1  0
 24 52  1  0
 24 53  1  0
 25 54  1  0
 25 55  1  0
 25 56  1  0
 28 57  1  0
 30 58  1  0
 31 59  1  0
 33 60  1  0
 35 61  1  0
 37 62  1  0
 37 63  1  0
 37 64  1  0
M  END
> <Name>
CHEMBL1684359

> <IC50 nM>
22

> <Molecule_ChEMBL_ID>
CHEMBL1684359

> <Smiles>
CC(=O)c1cccc(NC(=O)O[C@@H]2[C@@H](C)c3c(cc(F)c(-c4cccc5cc[nH]c45)c3F)NC2(C)C)c1

$$$$
CHEMBL392309
  SciTegic08162514323D

 48 49  0  0  1  0            999 V2000
    2.4840   -0.8770    2.7520 Br  0  0
    0.6170   -1.1000    2.5800 C   0  0
   -0.2440    0.0020    2.3650 C   0  0
    0.0760   -2.3970    2.6700 C   0  0
   -1.6290   -0.2070    2.2440 C   0  0
    0.2770    1.3950    2.2640 C   0  0
   -1.3090   -2.5980    2.5490 C   0  0
   -2.1600   -1.5040    2.3340 C   0  0
   -0.2870    2.1190    1.0430 C   0  0  2  0  0  0
    0.6090    3.1460    0.6860 O   0  0
   -1.6540    2.7480    1.3110 C   0  0
   -0.4610    1.1950   -0.1640 C   0  0
   -1.6540    4.0450    0.8650 F   0  0
   -1.9120    2.7270    2.6560 F   0  0
   -2.6230    2.0370    0.6480 F   0  0
    0.7950    1.1150   -1.0310 C   0  0
    0.2420    0.0660   -1.9300 C   0  0
    1.0740    2.4140   -1.7890 C   0  0
    2.0140    0.6090   -0.2600 C   0  0
    0.5000   -1.2950   -1.6780 C   0  0
   -0.5430    0.4410   -3.0350 C   0  0
    1.2320   -1.6580   -0.6450 O   0  0
   -0.0310   -2.2750   -2.5350 C   0  0
   -1.0700   -0.5410   -3.8910 C   0  0
    1.3950   -3.0470   -0.3960 C   0  0
   -0.8140   -1.9000   -3.6390 C   0  0
   -1.8130   -0.1860   -4.9380 F   0  0
    0.7150   -3.2540    2.8340 H   0  0
   -2.2930    0.6290    2.0780 H   0  0
    0.0430    1.9370    3.1780 H   0  0
    1.3670    1.3710    2.2290 H   0  0
   -1.7190   -3.5940    2.6190 H   0  0
   -3.2270   -1.6580    2.2400 H   0  0
    1.1350    3.3550    1.4730 H   0  0
   -0.7730    0.2010    0.1540 H   0  0
   -1.3220    1.4980   -0.7600 H   0  0
    1.4200    2.2270   -2.8050 H   0  0
    1.8380    3.0000   -1.2790 H   0  0
    0.1740    3.0230   -1.8520 H   0  0
    2.7310    0.1090   -0.9120 H   0  0
    1.7150   -0.1040    0.5100 H   0  0
    2.5290    1.4340    0.2310 H   0  0
   -0.7400    1.4860   -3.2290 H   0  0
    0.1640   -3.3200   -2.3460 H   0  0
    2.0570   -3.1660    0.4610 H   0  0
    0.4060   -3.4980   -0.3090 H   0  0
    1.8890   -3.4920   -1.2620 H   0  0
   -1.2190   -2.6600   -4.2930 H   0  0
  1  2  1  0
  2  3  2  0
  2  4  1  0
  3  5  1  0
  3  6  1  0
  4  7  2  0
  5  8  2  0
  6  9  1  0
  9 10  1  0
  9 11  1  0
  9 12  1  0
 11 13  1  0
 11 14  1  0
 11 15  1  0
 12 16  1  0
 16 17  1  0
 16 18  1  0
 16 19  1  0
 17 20  2  0
 17 21  1  0
 20 22  1  0
 20 23  1  0
 21 24  2  0
 22 25  1  0
 23 26  2  0
 24 27  1  0
  7  8  1  0
 24 26  1  0
  4 28  1  0
  5 29  1  0
  6 30  1  0
  6 31  1  0
  7 32  1  0
  8 33  1  0
 10 34  1  0
 12 35  1  0
 12 36  1  0
 18 37  1  0
 18 38  1  0
 18 39  1  0
 19 40  1  0
 19 41  1  0
 19 42  1  0
 21 43  1  0
 23 44  1  0
 25 45  1  0
 25 46  1  0
 25 47  1  0
 26 48  1  0
M  END
> <Name>
CHEMBL392309

> <IC50 nM>
205

> <Molecule_ChEMBL_ID>
CHEMBL392309

> <Smiles>
COc1ccc(F)cc1C(C)(C)CC(O)(Cc1ccccc1Br)C(F)(F)F

$$$$
CHEMBL401219
  SciTegic08162514323D

 49 50  0  0  1  0            999 V2000
    2.9670    5.4020    0.1990 F   0  0
    2.7090    4.2480   -0.4140 C   0  0
    2.3240    3.1230    0.3340 C   0  0
    2.8240    4.1560   -1.8130 C   0  0
    2.0530    1.9040   -0.3140 C   0  0
    2.5530    2.9400   -2.4590 C   0  0
    2.1680    1.8110   -1.7150 C   0  0
    1.6470    0.7210    0.4880 C   0  0
    1.9160    0.6740   -2.3340 O   0  0
    0.1500    0.9360    0.2540 C   0  0
    2.0410    0.8730    1.9570 C   0  0
    2.1580   -0.5800   -0.1290 C   0  0
    1.8870    0.6800   -3.7520 C   0  0
   -0.7030   -0.2030    0.8160 C   0  0  1  0  0  0
    0.0900   -0.9510    1.7090 O   0  0
   -1.8300    0.4530    1.6150 C   0  0
   -1.2210   -1.1450   -0.2700 C   0  0
   -2.5610   -0.5160    2.2560 F   0  0
   -2.6460    1.1520    0.7660 F   0  0
   -1.2950    1.3090    2.5430 F   0  0
   -2.1170   -2.1890    0.2930 C   0  0
   -3.5160   -2.0250    0.2340 C   0  0
   -1.5700   -3.3460    0.8830 C   0  0
   -4.3540   -3.0180    0.7700 C   0  0
   -2.4160   -4.3320    1.4160 C   0  0
   -5.7810   -2.8460    0.7070 C   0  0
   -3.8110   -4.1740    1.3610 C   0  0
   -6.9320   -2.7070    0.6580 N   0  0
    2.2360    3.1950    1.4100 H   0  0
    3.1190    5.0180   -2.3930 H   0  0
    2.6430    2.8710   -3.5330 H   0  0
   -0.0570    1.0840   -0.8050 H   0  0
   -0.1700    1.8950    0.6600 H   0  0
    3.0140    1.3540    2.0680 H   0  0
    2.0940   -0.1020    2.4450 H   0  0
    1.3070    1.4750    2.4940 H   0  0
    2.2250   -1.3810    0.6070 H   0  0
    3.1510   -0.4390   -0.5570 H   0  0
    1.4960   -0.9160   -0.9280 H   0  0
    1.6540   -0.3300   -4.0940 H   0  0
    1.2050    1.4650   -4.0760 H   0  0
    2.8830    0.9320   -4.1130 H   0  0
   -0.5120   -1.4960    2.2400 H   0  0
   -0.3930   -1.6190   -0.7950 H   0  0
   -1.7540   -0.5880   -1.0410 H   0  0
   -3.9360   -1.1330   -0.2210 H   0  0
   -0.5000   -3.4800    0.9320 H   0  0
   -1.9980   -5.2170    1.8670 H   0  0
   -4.4450   -4.9380    1.7710 H   0  0
  1  2  1  0
  2  3  2  0
  2  4  1  0
  3  5  1  0
  4  6  2  0
  5  7  2  0
  5  8  1  0
  7  9  1  0
  8 10  1  0
  8 11  1  0
  8 12  1  0
  9 13  1  0
 10 14  1  0
 14 15  1  0
 14 16  1  0
 14 17  1  0
 16 18  1  0
 16 19  1  0
 16 20  1  0
 17 21  1  0
 21 22  2  0
 21 23  1  0
 22 24  1  0
 23 25  2  0
 24 26  1  0
 24 27  2  0
 26 28  3  0
  6  7  1  0
 25 27  1  0
  3 29  1  0
  4 30  1  0
  6 31  1  0
 10 32  1  0
 10 33  1  0
 11 34  1  0
 11 35  1  0
 11 36  1  0
 12 37  1  0
 12 38  1  0
 12 39  1  0
 13 40  1  0
 13 41  1  0
 13 42  1  0
 15 43  1  0
 17 44  1  0
 17 45  1  0
 22 46  1  0
 23 47  1  0
 25 48  1  0
 27 49  1  0
M  END
> <Name>
CHEMBL401219

> <IC50 nM>
81

> <Molecule_ChEMBL_ID>
CHEMBL401219

> <Smiles>
COc1ccc(F)cc1C(C)(C)CC(O)(Cc1cccc(C#N)c1)C(F)(F)F

$$$$
CHEMBL202897
  SciTegic08162514323D

 50 52  0  0  0  0            999 V2000
   -1.1050   -2.0610   -1.1500 O   0  0
   -1.6930   -1.6450    0.0620 C   0  0
   -0.7910   -3.4360   -1.1720 C   0  0
   -2.0000   -0.1680   -0.0080 C   0  0
   -0.1820   -3.7890   -2.5020 C   0  0
   -0.9140    0.8530    0.0430 C   0  0
   -3.2850    0.2250   -0.1190 C   0  0
    0.4980   -4.9430   -2.6080 C   0  0
   -1.2480    2.2380   -0.0290 C   0  0
    0.4410    0.4550    0.1600 C   0  0
   -3.6880    1.6870   -0.1950 C   0  0
   -2.5390    2.6410   -0.1430 N   0  0
   -0.2070    3.2010    0.0210 C   0  0
    1.4750    1.4220    0.2110 C   0  0
   -4.4390    1.9060   -1.5120 C   0  0
   -4.6210    1.9860    0.9800 C   0  0
    1.1430    2.7970    0.1410 C   0  0
    2.8670    1.0080    0.3320 C   0  0
    3.2540    0.0720    1.3160 C   0  0
    3.8300    1.5470   -0.5430 C   0  0
    2.3710   -0.4470    2.1460 O   0  0
    4.6040   -0.3130    1.4160 C   0  0
    5.1740    1.1560   -0.4360 C   0  0
    2.8380   -1.3560    3.1350 C   0  0
    5.5610    0.2270    0.5430 C   0  0
   -2.6150   -2.2090    0.2030 H   0  0
   -0.9840   -1.8380    0.8670 H   0  0
   -1.7150   -3.9960   -1.0270 H   0  0
   -0.0780   -3.6350   -0.3730 H   0  0
   -0.2340   -3.1990   -3.4040 H   0  0
   -4.0630   -0.5250   -0.1540 H   0  0
    0.9900   -5.3280   -3.4880 H   0  0
    0.5510   -5.5350   -1.7050 H   0  0
    0.6930   -0.5960    0.2130 H   0  0
   -2.7540    3.6170   -0.1950 H   0  0
   -0.4300    4.2600   -0.0290 H   0  0
   -3.8110    1.7030   -2.3770 H   0  0
   -4.7910    2.9340   -1.5880 H   0  0
   -5.3090    1.2500   -1.5700 H   0  0
   -4.1230    1.8420    1.9390 H   0  0
   -5.4920    1.3320    0.9550 H   0  0
   -4.9750    3.0160    0.9390 H   0  0
    1.9140    3.5530    0.1760 H   0  0
    3.5490    2.2660   -1.3010 H   0  0
    4.9060   -1.0270    2.1660 H   0  0
    5.9100    1.5720   -1.1080 H   0  0
    2.0080   -1.5980    3.7970 H   0  0
    3.3110   -2.1970    2.6270 H   0  0
    3.6020   -0.8520    3.7270 H   0  0
    6.5960   -0.0720    0.6230 H   0  0
  1  2  1  0
  1  3  1  0
  2  4  1  0
  3  5  1  0
  4  6  1  0
  4  7  2  0
  5  8  2  0
  6  9  2  0
  6 10  1  0
  7 11  1  0
  9 12  1  0
  9 13  1  0
 10 14  2  0
 11 15  1  0
 11 16  1  0
 13 17  2  0
 14 18  1  0
 18 19  2  0
 18 20  1  0
 19 21  1  0
 19 22  1  0
 20 23  2  0
 21 24  1  0
 22 25  2  0
 11 12  1  0
 14 17  1  0
 23 25  1  0
  2 26  1  0
  2 27  1  0
  3 28  1  0
  3 29  1  0
  5 30  1  0
  7 31  1  0
  8 32  1  0
  8 33  1  0
 10 34  1  0
 12 35  1  0
 13 36  1  0
 15 37  1  0
 15 38  1  0
 15 39  1  0
 16 40  1  0
 16 41  1  0
 16 42  1  0
 17 43  1  0
 20 44  1  0
 22 45  1  0
 23 46  1  0
 24 47  1  0
 24 48  1  0
 24 49  1  0
 25 50  1  0
M  END
> <Name>
CHEMBL202897

> <IC50 nM>
2000

> <Molecule_ChEMBL_ID>
CHEMBL202897

> <Smiles>
C=CCOCC1=CC(C)(C)Nc2ccc(-c3ccccc3OC)cc21

$$$$
CHEMBL228611
  SciTegic08162514323D

 56 58  0  0  1  0            999 V2000
   -1.1940   -2.6510   -1.8530 O   0  0
   -0.8120   -1.9180   -0.7110 C   0  0  2  0  0  0
   -1.8080   -1.8570   -2.8430 C   0  0
    0.4150   -1.0970   -1.0280 C   0  0
   -0.5740   -2.9050    0.4330 C   0  0
   -2.2110   -2.7250   -4.0040 C   0  0
    0.7070    0.1760   -0.3050 C   0  0
    1.2590   -1.5310   -1.9850 C   0  0
   -1.8580   -3.5950    0.8940 C   0  0
   -3.1620   -2.2770   -4.8390 C   0  0
    1.8760    0.9200   -0.6330 C   0  0
   -0.1750    0.6450    0.7040 C   0  0
    2.5170   -0.7700   -2.3700 C   0  0
    2.7310    0.4870   -1.5950 N   0  0
    2.1420    2.1300    0.0600 C   0  0
    0.0970    1.8530    1.3910 C   0  0
    3.7180   -1.6910   -2.1440 C   0  0
    2.4210   -0.4140   -3.8560 C   0  0
    1.2600    2.5920    1.0630 C   0  0
   -0.8090    2.3310    2.4240 C   0  0
   -0.3110    2.7700    3.6700 C   0  0
   -2.1950    2.3550    2.1740 C   0  0
    0.9820    2.7580    3.9300 O   0  0
   -1.2060    3.2270    4.6540 C   0  0
   -3.0820    2.8140    3.1620 C   0  0
    1.4270    3.3670    5.1320 C   0  0
   -2.5880    3.2500    4.4020 C   0  0
   -1.6190   -1.2290   -0.4640 H   0  0
   -1.0870   -1.1080   -3.1720 H   0  0
   -2.6910   -1.3910   -2.4040 H   0  0
    0.1810   -3.6410    0.1560 H   0  0
   -0.0800   -2.4120    1.2700 H   0  0
   -1.8060   -3.6970   -4.2440 H   0  0
    1.0370   -2.4540   -2.5010 H   0  0
   -1.6560   -4.2710    1.7240 H   0  0
   -2.6000   -2.8600    1.2060 H   0  0
   -2.2920   -4.1820    0.0840 H   0  0
   -3.6920   -1.3370   -4.7770 H   0  0
   -3.4120   -2.9400   -5.6550 H   0  0
   -1.0620    0.0790    0.9520 H   0  0
    3.5520    1.0220   -1.8100 H   0  0
    3.0220    2.7160   -0.1680 H   0  0
    3.8240   -1.9710   -1.0960 H   0  0
    4.6420   -1.2030   -2.4540 H   0  0
    3.6150   -2.6080   -2.7250 H   0  0
    1.5760    0.2430   -4.0620 H   0  0
    2.2990   -1.3130   -4.4600 H   0  0
    3.3260    0.0930   -4.1900 H   0  0
    1.4870    3.5170    1.5740 H   0  0
   -2.5920    2.0220    1.2240 H   0  0
   -0.8310    3.5640    5.6090 H   0  0
   -4.1440    2.8300    2.9670 H   0  0
    1.0940    2.9110    6.0640 H   0  0
    1.0940    4.4050    5.1320 H   0  0
    2.5170    3.3670    5.1320 H   0  0
   -3.2700    3.6030    5.1610 H   0  0
  2  1  1  0
  1  3  1  0
  2  4  1  0
  2  5  1  0
  3  6  1  0
  4  7  1  0
  4  8  2  0
  5  9  1  0
  6 10  2  0
  7 11  2  0
  7 12  1  0
  8 13  1  0
 11 14  1  0
 11 15  1  0
 12 16  2  0
 13 17  1  0
 13 18  1  0
 15 19  2  0
 16 20  1  0
 20 21  2  0
 20 22  1  0
 21 23  1  0
 21 24  1  0
 22 25  2  0
 23 26  1  0
 24 27  2  0
 13 14  1  0
 16 19  1  0
 25 27  1  0
  2 28  1  0
  3 29  1  0
  3 30  1  0
  5 31  1  0
  5 32  1  0
  6 33  1  0
  8 34  1  0
  9 35  1  0
  9 36  1  0
  9 37  1  0
 10 38  1  0
 10 39  1  0
 12 40  1  0
 14 41  1  0
 15 42  1  0
 17 43  1  0
 17 44  1  0
 17 45  1  0
 18 46  1  0
 18 47  1  0
 18 48  1  0
 19 49  1  0
 22 50  1  0
 24 51  1  0
 25 52  1  0
 26 53  1  0
 26 54  1  0
 26 55  1  0
 27 56  1  0
M  END
> <Name>
CHEMBL228611

> <IC50 nM>
355

> <Molecule_ChEMBL_ID>
CHEMBL228611

> <Smiles>
C=CCOC(CC)C1=CC(C)(C)Nc2ccc(-c3ccccc3OC)cc21

$$$$
CHEMBL228715
  SciTegic08162514323D

 63 66  0  0  1  0            999 V2000
   -0.1290   -1.7400   -1.5640 O   0  0
   -1.0920   -1.4140   -0.5880 C   0  0  2  0  0  0
   -0.1370   -3.1060   -1.9180 C   0  0
   -1.3980    0.0630   -0.6580 C   0  0
   -0.5490   -1.8320    0.7770 C   0  0
    0.7810   -3.3260   -3.0900 C   0  0
   -0.3120    1.0860   -0.6070 C   0  0
   -2.6840    0.4550   -0.7700 C   0  0
   -1.5230   -1.5530    1.8630 C   0  0
    0.3110   -3.0880   -4.3260 C   0  0
   -0.6460    2.4690   -0.6800 C   0  0
    1.0430    0.6860   -0.4900 C   0  0
   -3.0860    1.9180   -0.8460 C   0  0
   -1.4450   -0.3480    2.5860 C   0  0
   -2.5250   -2.4900    2.1700 C   0  0
   -1.9370    2.8710   -0.7930 N   0  0
    0.3950    3.4340   -0.6290 C   0  0
    2.0760    1.6540   -0.4410 C   0  0
   -3.8380    2.1370   -2.1620 C   0  0
   -4.0190    2.2170    0.3300 C   0  0
   -2.3690   -0.0820    3.6130 C   0  0
   -3.4470   -2.2250    3.1970 C   0  0
    1.7440    3.0270   -0.5100 C   0  0
    3.4670    1.2400   -0.3180 C   0  0
   -3.3690   -1.0210    3.9180 C   0  0
    3.8810    0.4220    0.7560 C   0  0
    4.4030    1.6600   -1.2830 C   0  0
    3.0260    0.0160    1.6720 O   0  0
    5.2310    0.0350    0.8520 C   0  0
    5.7460    1.2680   -1.1800 C   0  0
    3.4630   -0.9570    2.6090 C   0  0
    6.1600    0.4550   -0.1110 C   0  0
   -2.0080   -1.9550   -0.8200 H   0  0
   -1.1560   -3.3810   -2.1890 H   0  0
    0.2130   -3.6800   -1.0610 H   0  0
    0.3910   -1.3220    0.9920 H   0  0
   -0.2930   -2.8930    0.7830 H   0  0
    1.8050   -3.6640   -3.0430 H   0  0
   -3.4590   -0.2950   -0.8050 H   0  0
    0.8480   -3.1910   -5.2560 H   0  0
   -0.7170   -2.7600   -4.3750 H   0  0
    1.2950   -0.3650   -0.4380 H   0  0
   -0.6800    0.3790    2.3560 H   0  0
   -2.5900   -3.4180    1.6190 H   0  0
   -2.1520    3.8500   -0.8460 H   0  0
    0.1740    4.4900   -0.6820 H   0  0
   -3.2050    1.9430   -3.0270 H   0  0
   -4.1970    3.1640   -2.2340 H   0  0
   -4.7030    1.4770   -2.2250 H   0  0
   -3.5250    2.0660    1.2890 H   0  0
   -4.8940    1.5700    0.3010 H   0  0
   -4.3670    3.2500    0.2930 H   0  0
   -2.3090    0.8420    4.1680 H   0  0
   -4.2170   -2.9450    3.4320 H   0  0
    2.5160    3.7830   -0.4750 H   0  0
   -4.0780   -0.8160    4.7070 H   0  0
    4.1000    2.2850   -2.1110 H   0  0
    5.5530   -0.5900    1.6720 H   0  0
    6.4630    1.5920   -1.9200 H   0  0
    2.6250   -1.2050    3.2620 H   0  0
    3.9080   -1.7850    2.0590 H   0  0
    4.2420   -0.5100    3.2270 H   0  0
    7.1960    0.1540   -0.0310 H   0  0
  2  1  1  0
  1  3  1  0
  2  4  1  0
  2  5  1  0
  3  6  1  0
  4  7  1  0
  4  8  2  0
  5  9  1  0
  6 10  2  0
  7 11  2  0
  7 12  1  0
  8 13  1  0
  9 14  2  0
  9 15  1  0
 11 16  1  0
 11 17  1  0
 12 18  2  0
 13 19  1  0
 13 20  1  0
 14 21  1  0
 15 22  2  0
 17 23  2  0
 18 24  1  0
 21 25  2  0
 24 26  2  0
 24 27  1  0
 26 28  1  0
 26 29  1  0
 27 30  2  0
 28 31  1  0
 29 32  2  0
 13 16  1  0
 18 23  1  0
 22 25  1  0
 30 32  1  0
  2 33  1  0
  3 34  1  0
  3 35  1  0
  5 36  1  0
  5 37  1  0
  6 38  1  0
  8 39  1  0
 10 40  1  0
 10 41  1  0
 12 42  1  0
 14 43  1  0
 15 44  1  0
 16 45  1  0
 17 46  1  0
 19 47  1  0
 19 48  1  0
 19 49  1  0
 20 50  1  0
 20 51  1  0
 20 52  1  0
 21 53  1  0
 22 54  1  0
 23 55  1  0
 25 56  1  0
 27 57  1  0
 29 58  1  0
 30 59  1  0
 31 60  1  0
 31 61  1  0
 31 62  1  0
 32 63  1  0
M  END
> <Name>
CHEMBL228715

> <IC50 nM>
2000

> <Molecule_ChEMBL_ID>
CHEMBL228715

> <Smiles>
C=CCOC(Cc1ccccc1)C1=CC(C)(C)Nc2ccc(-c3ccccc3OC)cc21

$$$$
CHEMBL394344
  SciTegic08162514323D

 63 66  0  0  1  0            999 V2000
   -0.8650   -1.5180    0.5700 O   0  0
   -1.7150   -1.1640    1.6390 C   0  0  2  0  0  0
   -1.4760   -1.3810   -0.6910 C   0  0
   -2.0210    0.3130    1.5680 C   0  0
   -1.0270   -1.5550    2.9470 C   0  0
   -0.5620   -1.9320   -1.7540 C   0  0
   -0.9350    1.3360    1.6190 C   0  0
   -3.3070    0.7070    1.4590 C   0  0
   -1.0960   -2.3010   -2.9300 C   0  0
   -1.2690    2.7190    1.5490 C   0  0
    0.4200    0.9360    1.7380 C   0  0
   -3.7090    2.1700    1.3810 C   0  0
   -0.1910   -2.8480   -3.9860 C   0  0
   -2.5600    3.1210    1.4340 N   0  0
   -0.2280    3.6840    1.6000 C   0  0
    1.4530    1.9040    1.7870 C   0  0
   -4.4610    2.3870    0.0660 C   0  0
   -4.6430    2.4690    2.5570 C   0  0
   -0.5230   -2.6970   -5.3460 C   0  0
    0.9920   -3.5140   -3.6230 C   0  0
    1.1210    3.2790    1.7170 C   0  0
    2.8460    1.4900    1.9100 C   0  0
    0.3260   -3.2110   -6.3380 C   0  0
    1.8420   -4.0290   -4.6190 C   0  0
    3.4040    0.5740    0.9920 C   0  0
    3.6330    2.0100    2.9530 C   0  0
    1.5100   -3.8770   -5.9750 C   0  0
    2.6860    0.0720    0.0060 O   0  0
    4.7500    0.1880    1.1290 C   0  0
    4.9770    1.6190    3.0840 C   0  0
    3.3690   -0.6130   -1.0330 C   0  0
    5.5350    0.7090    2.1720 C   0  0
   -2.6540   -1.7050    1.5220 H   0  0
   -1.6520   -0.3180   -0.8690 H   0  0
   -2.4100   -1.9410   -0.6820 H   0  0
   -1.6500   -2.2130    3.5530 H   0  0
   -0.7990   -0.6700    3.5430 H   0  0
   -0.0880   -2.0720    2.7500 H   0  0
    0.5060   -2.0640   -1.6680 H   0  0
   -4.0840   -0.0450    1.4220 H   0  0
   -2.1430   -2.2340   -3.1820 H   0  0
    0.6720   -0.1130    1.7910 H   0  0
   -2.7750    4.1000    1.3830 H   0  0
   -0.4510    4.7400    1.5470 H   0  0
   -3.8320    2.1860   -0.8010 H   0  0
   -4.8120    3.4160   -0.0100 H   0  0
   -5.3300    1.7330    0.0080 H   0  0
   -4.1450    2.3240    3.5180 H   0  0
   -5.5140    1.8150    2.5330 H   0  0
   -4.9960    3.4980    2.5160 H   0  0
   -1.4320   -2.1860   -5.6330 H   0  0
    1.2580   -3.6350   -2.5840 H   0  0
    1.8930    4.0330    1.7540 H   0  0
    0.0700   -3.0960   -7.3810 H   0  0
    2.7520   -4.5410   -4.3400 H   0  0
    3.2210    2.7130    3.6640 H   0  0
    2.1620   -4.2730   -6.7400 H   0  0
    5.1840   -0.5120    0.4320 H   0  0
    5.5800    2.0200    3.8850 H   0  0
    2.6430   -0.8830   -1.8010 H   0  0
    4.2050    0.0040   -1.3590 H   0  0
    3.7770   -1.5370   -0.6230 H   0  0
    6.5690    0.4080    2.2720 H   0  0
  1  2  1  0
  1  3  1  0
  2  4  1  0
  2  5  1  0
  3  6  1  0
  4  7  1  0
  4  8  2  0
  6  9  2  0
  7 10  2  0
  7 11  1  0
  8 12  1  0
  9 13  1  0
 10 14  1  0
 10 15  1  0
 11 16  2  0
 12 17  1  0
 12 18  1  0
 13 19  2  0
 13 20  1  0
 15 21  2  0
 16 22  1  0
 19 23  1  0
 20 24  2  0
 22 25  2  0
 22 26  1  0
 23 27  2  0
 25 28  1  0
 25 29  1  0
 26 30  2  0
 28 31  1  0
 29 32  2  0
 12 14  1  0
 16 21  1  0
 24 27  1  0
 30 32  1  0
  2 33  1  0
  3 34  1  0
  3 35  1  0
  5 36  1  0
  5 37  1  0
  5 38  1  0
  6 39  1  0
  8 40  1  0
  9 41  1  0
 11 42  1  0
 14 43  1  0
 15 44  1  0
 17 45  1  0
 17 46  1  0
 17 47  1  0
 18 48  1  0
 18 49  1  0
 18 50  1  0
 19 51  1  0
 20 52  1  0
 21 53  1  0
 23 54  1  0
 24 55  1  0
 26 56  1  0
 27 57  1  0
 29 58  1  0
 30 59  1  0
 31 60  1  0
 31 61  1  0
 31 62  1  0
 32 63  1  0
M  END
> <Name>
CHEMBL394344

> <IC50 nM>
980

> <Molecule_ChEMBL_ID>
CHEMBL394344

> <Smiles>
COc1ccccc1-c1ccc2c(c1)C(C(C)OC/C=C/c1ccccc1)=CC(C)(C)N2

$$$$
CHEMBL2419308
  SciTegic08162514323D

 42 45  0  0  1  0            999 V2000
   -1.3730   -3.8750   -4.0610 F   0  0
   -0.6950   -3.3030   -3.0680 C   0  0
   -0.6110   -1.9000   -2.9900 C   0  0
   -0.0600   -4.1000   -2.0980 C   0  0
    0.1060   -1.2970   -1.9410 C   0  0
    0.6540   -3.4960   -1.0490 C   0  0
    0.7380   -2.0940   -0.9710 C   0  0
    1.5000   -1.4510    0.1460 C   0  0
    2.6900   -1.9980    0.7770 C   0  0
    1.2190   -0.2870    0.7360 C   0  0
    3.2010   -3.0490    0.4670 O   0  0
    3.1210   -1.1720    1.7400 O   0  0
    0.0880    0.6130    0.4220 C   0  0
    2.2540   -0.0250    1.8050 C   0  0  1  0  0  0
   -1.2380    0.1250    0.4840 C   0  0
    0.3400    1.9570    0.0590 C   0  0
    3.0700    1.2400    1.5590 C   0  0
   -2.3280    0.9860    0.1880 C   0  0
   -0.7400    2.8180   -0.2340 C   0  0
    4.3010    1.2360    2.4670 C   0  0
   -3.6010    0.5270    0.2230 N   0  0
   -2.0700    2.3440   -0.1620 C   0  0
   -4.6760    1.3790    0.0940 C   0  0
   -3.0860    3.1880   -0.4410 O   0  0
   -5.8030    0.9430    0.0900 O   0  0
   -4.4260    2.8710   -0.0370 C   0  0
   -1.0960   -1.2850   -3.7320 H   0  0
   -0.1230   -5.1760   -2.1540 H   0  0
    0.1640   -0.2190   -1.8890 H   0  0
    1.1370   -4.1150   -0.3090 H   0  0
    1.7890   -0.0020    2.7790 H   0  0
   -1.4140   -0.9060    0.7600 H   0  0
    1.3520    2.3300    0.0060 H   0  0
    2.4630    2.1290    1.7340 H   0  0
    3.3630    1.3110    0.5120 H   0  0
   -0.5470    3.8460   -0.5140 H   0  0
    4.8650    2.1600    2.3540 H   0  0
    4.0080    1.1250    3.5120 H   0  0
    4.9610    0.4080    2.2170 H   0  0
   -3.7790   -0.4510    0.3400 H   0  0
   -5.1170    3.3190   -0.7480 H   0  0
   -4.6030    3.3420    0.9300 H   0  0
  1  2  1  0
  2  3  2  0
  2  4  1  0
  3  5  1  0
  4  6  2  0
  5  7  2  0
  7  8  1  0
  8  9  1  0
  8 10  2  0
  9 11  2  0
  9 12  1  0
 10 13  1  0
 10 14  1  0
 13 15  2  0
 13 16  1  0
 14 17  1  0
 15 18  1  0
 16 19  2  0
 17 20  1  0
 18 21  1  0
 18 22  2  0
 21 23  1  0
 22 24  1  0
 23 25  2  0
 23 26  1  0
  6  7  1  0
 12 14  1  0
 19 22  1  0
 24 26  1  0
  3 27  1  0
  4 28  1  0
  5 29  1  0
  6 30  1  0
 14 31  1  0
 15 32  1  0
 16 33  1  0
 17 34  1  0
 17 35  1  0
 19 36  1  0
 20 37  1  0
 20 38  1  0
 20 39  1  0
 21 40  1  0
 26 41  1  0
 26 42  1  0
M  END
> <Name>
CHEMBL2419308

> <IC50 nM>
2000

> <Molecule_ChEMBL_ID>
CHEMBL2419308

> <Smiles>
CCC1OC(=O)C(c2ccc(F)cc2)=C1c1ccc2c(c1)NC(=O)CO2

$$$$
CHEMBL2419305
  SciTegic08162514323D

 42 45  0  0  0  0            999 V2000
   -0.6150   -2.8280   -4.8260 F   0  0
    0.0210   -2.2950   -3.7850 C   0  0
   -0.3480   -1.0210   -3.3150 C   0  0
    1.0610   -3.0020   -3.1580 C   0  0
    0.3240   -0.4570   -2.2150 C   0  0
    1.7320   -2.4380   -2.0610 C   0  0
    1.3650   -1.1640   -1.5860 C   0  0
    2.0800   -0.5640   -0.4180 C   0  0
    3.4900   -0.7380   -0.1130 C   0  0
    1.5490    0.2190    0.5250 C   0  0
    4.2520   -1.3970   -0.7830 O   0  0
    3.8050   -0.0680    1.0020 O   0  0
    0.1410    0.6580    0.6110 C   0  0
    2.6330    0.5960    1.5120 C   0  0
   -0.8960   -0.3030    0.6190 C   0  0
   -0.1620    2.0370    0.6860 C   0  0
    2.3380    0.0640    2.9100 C   0  0
    2.8930    2.0980    1.5230 C   0  0
   -2.2520    0.1130    0.7010 C   0  0
   -1.5080    2.4590    0.7640 C   0  0
   -3.2520   -0.7990    0.7290 N   0  0
   -2.5550    1.5040    0.7660 C   0  0
   -4.5720   -0.4200    0.6700 C   0  0
   -3.8320    1.9320    0.8440 O   0  0
   -5.4490   -1.2500    0.7290 O   0  0
   -4.9160    1.0510    0.5200 C   0  0
   -1.1470   -0.4750   -3.7930 H   0  0
    1.3480   -3.9810   -3.5180 H   0  0
    0.0330    0.5200   -1.8590 H   0  0
    2.5310   -2.9880   -1.5840 H   0  0
   -0.6480   -1.3550    0.5660 H   0  0
    0.6290    2.7750    0.6820 H   0  0
    2.1880   -1.0140    2.9120 H   0  0
    1.4390    0.5270    3.3160 H   0  0
    3.1640    0.2870    3.5880 H   0  0
    2.8910    2.4980    0.5100 H   0  0
    2.1350    2.6150    2.1130 H   0  0
    3.8630    2.3160    1.9670 H   0  0
   -1.7380    3.5120    0.8220 H   0  0
   -3.0390   -1.7770    0.7990 H   0  0
   -5.2030    1.2400   -0.5160 H   0  0
   -5.7720    1.3130    1.1450 H   0  0
  1  2  1  0
  2  3  2  0
  2  4  1  0
  3  5  1  0
  4  6  2  0
  5  7  2  0
  7  8  1  0
  8  9  1  0
  8 10  2  0
  9 11  2  0
  9 12  1  0
 10 13  1  0
 10 14  1  0
 13 15  2  0
 13 16  1  0
 14 17  1  0
 14 18  1  0
 15 19  1  0
 16 20  2  0
 19 21  1  0
 19 22  2  0
 21 23  1  0
 22 24  1  0
 23 25  2  0
 23 26  1  0
  6  7  1  0
 12 14  1  0
 20 22  1  0
 24 26  1  0
  3 27  1  0
  4 28  1  0
  5 29  1  0
  6 30  1  0
 15 31  1  0
 16 32  1  0
 17 33  1  0
 17 34  1  0
 17 35  1  0
 18 36  1  0
 18 37  1  0
 18 38  1  0
 20 39  1  0
 21 40  1  0
 26 41  1  0
 26 42  1  0
M  END
> <Name>
CHEMBL2419305

> <IC50 nM>
4700

> <Molecule_ChEMBL_ID>
CHEMBL2419305

> <Smiles>
CC1(C)OC(=O)C(c2ccc(F)cc2)=C1c1ccc2c(c1)NC(=O)CO2

$$$$
CHEMBL444889
  SciTegic08162514323D

 40 42  0  0  1  0            999 V2000
   -0.0700   -2.9060    0.7870 S   0  0
   -1.4430   -2.5040    1.0370 O   0  0
    0.0650   -4.3170    0.4630 O   0  0
    0.4320   -2.0390   -0.6350 N   0  0
    0.8560   -2.5840    2.2070 C   0  0
    0.2480   -0.5980   -0.6560 C   0  0  2  0  0  0
    2.2600   -2.6470    2.1580 C   0  0
    0.2050   -2.2580    3.4100 C   0  0
    0.4260   -0.0550   -2.0740 C   0  0
    1.1760    0.0760    0.3550 C   0  0
    3.0140   -2.3850    3.3150 C   0  0
    0.9610   -1.9960    4.5660 C   0  0
   -0.0040    1.3960   -2.1660 C   0  0
    2.3630   -2.0590    4.5180 C   0  0
   -1.2640    1.8870   -2.2010 C   0  0
    0.8420    2.5200   -2.2310 C   0  0
   -1.2890    3.2560   -2.2850 C   0  0
   -2.4630    1.1310   -2.1600 C   0  0
    0.0310    3.6800   -2.3050 N   0  0
   -2.5080    3.9730   -2.3360 C   0  0
   -3.6990    1.8240   -2.2090 C   0  0
   -3.7230    3.2420   -2.2970 C   0  0
    1.4240   -2.2380   -0.8260 H   0  0
   -0.7930   -0.5140   -0.3400 H   0  0
    2.7600   -2.8970    1.2340 H   0  0
   -0.8730   -2.2090    3.4470 H   0  0
   -0.1420   -0.6480   -2.7890 H   0  0
    1.4650   -0.1470   -2.3930 H   0  0
    0.9200   -0.2230    1.3710 H   0  0
    2.2150   -0.1860    0.1580 H   0  0
    1.0880    1.1620    0.2950 H   0  0
    4.0920   -2.4340    3.2790 H   0  0
    0.4630   -1.7460    5.4900 H   0  0
    2.9440   -1.8570    5.4080 H   0  0
    1.9240    2.5390   -2.2270 H   0  0
   -2.4450    0.0530   -2.0960 H   0  0
    0.3520    4.6190   -2.3610 H   0  0
   -2.5160    5.0530   -2.4020 H   0  0
   -4.6270    1.2710   -2.1800 H   0  0
   -4.6680    3.7640   -2.3320 H   0  0
  1  2  2  0
  1  3  2  0
  1  4  1  0
  1  5  1  0
  4  6  1  0
  5  7  2  0
  5  8  1  0
  6  9  1  0
  6 10  1  0
  7 11  1  0
  8 12  2  0
  9 13  1  0
 11 14  2  0
 13 15  1  0
 13 16  2  0
 15 17  1  0
 15 18  2  0
 16 19  1  0
 17 20  2  0
 18 21  1  0
 20 22  1  0
 12 14  1  0
 17 19  1  0
 21 22  2  0
  4 23  1  0
  6 24  1  0
  7 25  1  0
  8 26  1  0
  9 27  1  0
  9 28  1  0
 10 29  1  0
 10 30  1  0
 10 31  1  0
 11 32  1  0
 12 33  1  0
 14 34  1  0
 16 35  1  0
 18 36  1  0
 19 37  1  0
 20 38  1  0
 21 39  1  0
 22 40  1  0
M  END
> <Name>
CHEMBL444889

> <IC50 nM>
10000

> <Molecule_ChEMBL_ID>
CHEMBL444889

> <Smiles>
CC(Cc1c[nH]c2ccccc12)NS(=O)(=O)c1ccccc1

$$$$
CHEMBL397005
  SciTegic08162514323D

 46 48  0  0  0  0            999 V2000
    2.2150   -1.9630    0.6820 S   0  0
    2.6950   -3.3140    0.4490 O   0  0
    3.1680   -1.1330    1.3960 O   0  0
    2.0370   -1.2400   -0.8910 N   0  0
    0.7640   -2.0550    1.6150 C   0  0
    1.6050    0.1450   -0.9610 C   0  0
    0.4120   -0.9960    2.4730 C   0  0
   -0.0640   -3.1890    1.5200 C   0  0
    1.4730    0.5920   -2.4160 C   0  0
   -0.7700   -1.0720    3.2320 C   0  0
    1.2810    0.2050    2.5800 C   0  0
   -1.2440   -3.2620    2.2790 C   0  0
    0.3030   -4.3120    0.6150 C   0  0
    1.0430    2.0430   -2.5080 C   0  0
   -1.5980   -2.2030    3.1370 C   0  0
   -0.2170    2.5330   -2.5430 C   0  0
    1.8890    3.1680   -2.5720 C   0  0
   -2.8460   -2.2830    3.9390 C   0  0
   -0.2420    3.9030   -2.6290 C   0  0
   -1.4160    1.7790   -2.5040 C   0  0
    1.0760    4.3260   -2.6490 N   0  0
   -1.4610    4.6210   -2.6780 C   0  0
   -2.6520    2.4710   -2.5510 C   0  0
   -2.6760    3.8890   -2.6390 C   0  0
    1.3910   -1.8080   -1.4590 H   0  0
    2.3160    0.7740   -0.4260 H   0  0
    0.6560    0.2560   -0.4360 H   0  0
    0.7560   -0.0330   -2.9490 H   0  0
    2.4160    0.4590   -2.9470 H   0  0
   -1.0410   -0.2580    3.8890 H   0  0
    1.6110    0.6080    1.6210 H   0  0
    2.1700   -0.0390    3.1620 H   0  0
    0.7460    0.9960    3.1050 H   0  0
   -1.8810   -4.1330    2.2050 H   0  0
   -0.5080   -5.0140    0.4200 H   0  0
    1.1310   -4.8730    1.0510 H   0  0
    0.6370   -3.9140   -0.3420 H   0  0
    2.9710    3.1860   -2.5680 H   0  0
   -3.3560   -3.2230    3.7270 H   0  0
   -2.6060   -2.1640    4.9960 H   0  0
   -3.5120   -1.4690    3.6540 H   0  0
   -1.3990    0.6990   -2.4380 H   0  0
    1.3980    5.2660   -2.7030 H   0  0
   -1.4710    5.6990   -2.7440 H   0  0
   -3.5800    1.9180   -2.5220 H   0  0
   -3.6210    4.4120   -2.6740 H   0  0
  1  2  2  0
  1  3  2  0
  1  4  1  0
  1  5  1  0
  4  6  1  0
  5  7  2  0
  5  8  1  0
  6  9  1  0
  7 10  1  0
  7 11  1  0
  8 12  2  0
  8 13  1  0
  9 14  1  0
 10 15  2  0
 14 16  1  0
 14 17  2  0
 15 18  1  0
 16 19  1  0
 16 20  2  0
 17 21  1  0
 19 22  2  0
 20 23  1  0
 22 24  1  0
 12 15  1  0
 19 21  1  0
 23 24  2  0
  4 25  1  0
  6 26  1  0
  6 27  1  0
  9 28  1  0
  9 29  1  0
 10 30  1  0
 11 31  1  0
 11 32  1  0
 11 33  1  0
 12 34  1  0
 13 35  1  0
 13 36  1  0
 13 37  1  0
 17 38  1  0
 18 39  1  0
 18 40  1  0
 18 41  1  0
 20 42  1  0
 21 43  1  0
 22 44  1  0
 23 45  1  0
 24 46  1  0
M  END
> <Name>
CHEMBL397005

> <IC50 nM>
2000

> <Molecule_ChEMBL_ID>
CHEMBL397005

> <Smiles>
Cc1cc(C)c(S(=O)(=O)NCCc2c[nH]c3ccccc23)c(C)c1

$$$$
CHEMBL233659
  SciTegic08162514323D

 40 42  0  0  1  0            999 V2000
    3.0250   -3.6150    1.3050 Cl  0  0
    2.0290   -2.8670    2.4860 C   0  0
    0.6780   -2.5760    2.2090 C   0  0
    2.5700   -2.5410    3.7460 C   0  0
   -0.0180   -2.9590    0.6740 S   0  0
   -0.1250   -1.9670    3.1850 C   0  0
    1.7640   -1.9280    4.7230 C   0  0
   -1.4360   -2.6500    0.7260 O   0  0
    0.2540   -4.3550    0.3850 O   0  0
    0.6190   -2.0570   -0.6700 N   0  0
    0.4160   -1.6430    4.4410 C   0  0
    2.4240   -1.5290    6.2560 Cl  0  0
    0.3950   -0.6230   -0.6990 C   0  0  2  0  0  0
    0.5740   -0.0800   -2.1150 C   0  0
    1.2890    0.0800    0.3220 C   0  0
    0.1450    1.3710   -2.2070 C   0  0
   -1.1150    1.8610   -2.2440 C   0  0
    0.9900    2.4960   -2.2720 C   0  0
   -1.1410    3.2310   -2.3280 C   0  0
   -2.3140    1.1070   -2.2030 C   0  0
    0.1800    3.6540   -2.3480 N   0  0
   -2.3590    3.9490   -2.3770 C   0  0
   -3.5510    1.7990   -2.2520 C   0  0
   -3.5740    3.2190   -2.3380 C   0  0
    3.6060   -2.7600    3.9630 H   0  0
   -1.1600   -1.7460    2.9750 H   0  0
    1.6330   -2.2270   -0.7460 H   0  0
   -0.2150   -1.1740    5.1840 H   0  0
   -0.6520   -0.5660   -0.3950 H   0  0
    0.0060   -0.6720   -2.8320 H   0  0
    1.6130   -0.1700   -2.4340 H   0  0
    1.0660   -0.2640    1.3320 H   0  0
    2.3420   -0.1070    0.1050 H   0  0
    1.1330    1.1580    0.2950 H   0  0
    2.0720    2.5140   -2.2700 H   0  0
   -2.2970    0.0270   -2.1370 H   0  0
    0.5000    4.5940   -2.4020 H   0  0
   -2.3670    5.0270   -2.4450 H   0  0
   -4.4790    1.2460   -2.2210 H   0  0
   -4.5200    3.7400   -2.3750 H   0  0
  1  2  1  0
  2  3  2  0
  2  4  1  0
  3  5  1  0
  3  6  1  0
  4  7  2  0
  5  8  2  0
  5  9  2  0
  5 10  1  0
  6 11  2  0
  7 12  1  0
 10 13  1  0
 13 14  1  0
 13 15  1  0
 14 16  1  0
 16 17  1  0
 16 18  2  0
 17 19  1  0
 17 20  2  0
 18 21  1  0
 19 22  2  0
 20 23  1  0
 22 24  1  0
  7 11  1  0
 19 21  1  0
 23 24  2  0
  4 25  1  0
  6 26  1  0
 10 27  1  0
 11 28  1  0
 13 29  1  0
 14 30  1  0
 14 31  1  0
 15 32  1  0
 15 33  1  0
 15 34  1  0
 18 35  1  0
 20 36  1  0
 21 37  1  0
 22 38  1  0
 23 39  1  0
 24 40  1  0
M  END
> <Name>
CHEMBL233659

> <IC50 nM>
480

> <Molecule_ChEMBL_ID>
CHEMBL233659

> <Smiles>
CC(Cc1c[nH]c2ccccc12)NS(=O)(=O)c1ccc(Cl)cc1Cl

$$$$
CHEMBL335996
  SciTegic08162514323D

 55 59  0  0  0  0            999 V2000
    3.5590   -6.1070    0.7810 F   0  0
    3.1820   -4.8850    0.4160 C   0  0
    1.8970   -4.4080    0.7710 C   0  0
    4.0630   -4.0680   -0.3240 C   0  0
    1.4820   -3.1000    0.3890 C   0  0
    3.6700   -2.7680   -0.7050 C   0  0
    2.3950   -2.2710   -0.3420 C   0  0
    0.1290   -2.5660    0.7110 C   0  0
    2.0740   -1.0080   -0.6950 O   0  0
   -0.2320   -1.2870    0.1990 C   0  0
   -0.8050   -3.2830    1.5080 C   0  0
    0.9040   -0.4590   -0.3320 C   0  0
   -1.6070   -0.8770    0.2340 C   0  0
   -2.0880   -2.7480    1.7520 C   0  0
    0.8300    0.8910   -0.4020 C   0  0
   -2.5000   -1.5450    1.1250 C   0  0
   -2.1760    0.1910   -0.6580 C   0  0
    1.9340    1.7250   -0.9770 C   0  0
   -3.7400   -1.0510    1.3690 N   0  0
   -3.3810    0.7230   -0.3650 C   0  0
   -1.4900    0.6700   -1.9160 C   0  0
    2.2420    2.9810   -0.4160 C   0  0
    2.6640    1.2480   -2.0800 C   0  0
   -4.1910    0.2680    0.8340 C   0  0
    1.5680    3.4420    0.6190 O   0  0
    3.2810    3.7520   -0.9670 C   0  0
    3.7010    2.0240   -2.6270 C   0  0
   -5.6580    0.1520    0.4120 C   0  0
   -4.0610    1.3180    1.9410 C   0  0
    2.0200    4.6430    1.2270 C   0  0
    4.0100    3.2760   -2.0700 C   0  0
    1.2560   -5.0700    1.3320 H   0  0
    5.0410   -4.4360   -0.6040 H   0  0
    4.3480   -2.1460   -1.2720 H   0  0
   -0.5740   -4.2380    1.9510 H   0  0
   -2.7520   -3.2790    2.4220 H   0  0
   -0.0270    1.4300   -0.0330 H   0  0
   -4.3850   -1.5660    1.9370 H   0  0
   -3.7890    1.4940   -1.0040 H   0  0
   -0.6310    0.0630   -2.2010 H   0  0
   -1.1450    1.6950   -1.7830 H   0  0
   -2.1950    0.6600   -2.7480 H   0  0
    2.4320    0.2870   -2.5160 H   0  0
    3.5240    4.7150   -0.5430 H   0  0
    4.2600    1.6560   -3.4750 H   0  0
   -5.7970   -0.5880   -0.3770 H   0  0
   -6.0290    1.1080    0.0410 H   0  0
   -6.2810   -0.1410    1.2560 H   0  0
   -3.0290    1.4320    2.2710 H   0  0
   -4.6600    1.0410    2.8070 H   0  0
   -4.4080    2.2910    1.5920 H   0  0
    1.3520    4.8770    2.0570 H   0  0
    3.0740    4.5260    1.4750 H   0  0
    1.9360    5.4470    0.4960 H   0  0
    4.8070    3.8710   -2.4900 H   0  0
  1  2  1  0
  2  3  2  0
  2  4  1  0
  3  5  1  0
  4  6  2  0
  5  7  2  0
  5  8  1  0
  7  9  1  0
  8 10  2  0
  8 11  1  0
  9 12  1  0
 10 13  1  0
 11 14  2  0
 12 15  2  0
 13 16  2  0
 13 17  1  0
 15 18  1  0
 16 19  1  0
 17 20  2  0
 17 21  1  0
 18 22  2  0
 18 23  1  0
 19 24  1  0
 22 25  1  0
 22 26  1  0
 23 27  2  0
 24 28  1  0
 24 29  1  0
 25 30  1  0
 26 31  2  0
  6  7  1  0
 10 12  1  0
 14 16  1  0
 20 24  1  0
 27 31  1  0
  3 32  1  0
  4 33  1  0
  6 34  1  0
 11 35  1  0
 14 36  1  0
 15 37  1  0
 19 38  1  0
 20 39  1  0
 21 40  1  0
 21 41  1  0
 21 42  1  0
 23 43  1  0
 26 44  1  0
 27 45  1  0
 28 46  1  0
 28 47  1  0
 28 48  1  0
 29 49  1  0
 29 50  1  0
 29 51  1  0
 30 52  1  0
 30 53  1  0
 30 54  1  0
 31 55  1  0
M  END
> <Name>
CHEMBL335996

> <IC50 nM>
90

> <Molecule_ChEMBL_ID>
CHEMBL335996

> <Smiles>
COc1ccccc1/C=C1\Oc2ccc(F)cc2-c2ccc3c(c21)C(C)=CC(C)(C)N3

$$$$
CHEMBL3094472
  SciTegic08162514323D

 54 55  0  0  1  0            999 V2000
   -0.3260   -0.8130   -1.5290 S   0  0
    1.1070   -0.9610   -1.7010 O   0  0
   -1.0920   -1.8710   -2.1640 O   0  0
   -0.6250   -0.9630    0.1780 N   0  0
   -0.8050    0.6950   -2.2270 C   0  0
    0.1290   -0.1090    1.0800 C   0  0  2  0  0  0
    0.1480    1.7130   -2.4220 C   0  0
   -2.1450    0.9060   -2.5980 C   0  0
    0.1970   -0.7310    2.4750 C   0  0
   -0.4550    1.3050    1.0900 C   0  0
   -0.2400    2.9390   -2.9880 C   0  0
    1.5680    1.4980   -2.0310 C   0  0
   -2.5310    2.1330   -3.1640 C   0  0
   -3.1580   -0.1640   -2.3950 C   0  0
    0.9880   -1.9920    2.4750 C   0  0
    0.5390    2.3500    1.5940 C   0  0
   -1.5800    3.1500   -3.3600 C   0  0
    0.3300   -3.2400    2.4750 C   0  0
    2.3980   -1.9450    2.4750 C   0  0
   -1.9900    4.4470   -3.9590 C   0  0
    1.0800   -4.4300    2.4750 C   0  0
   -1.1560   -3.3150    2.4750 C   0  0
    3.1410   -3.1390    2.4750 C   0  0
    3.1110   -0.6390    2.4750 C   0  0
    2.4840   -4.3790    2.4750 C   0  0
   -1.6270   -0.8260    0.3650 H   0  0
    1.1110   -0.1170    0.6050 H   0  0
   -0.8050   -0.9300    2.8570 H   0  0
    0.6310   -0.0290    3.1870 H   0  0
   -0.8300    1.5740    0.1030 H   0  0
   -1.3750    1.3360    1.6740 H   0  0
    0.4900    3.7210   -3.1390 H   0  0
    1.7010    1.0960   -1.0280 H   0  0
    2.1070    2.4430   -2.0860 H   0  0
    2.0370    0.8070   -2.7330 H   0  0
   -3.5610    2.2950   -3.4490 H   0  0
   -3.0880   -0.6720   -1.4320 H   0  0
   -3.0530   -0.9160   -3.1760 H   0  0
   -4.1580    0.2620   -2.4750 H   0  0
    0.8380    2.1350    2.6210 H   0  0
    1.4300    2.3710    0.9650 H   0  0
    0.0960    3.3440    1.5760 H   0  0
   -3.0510    4.5140   -4.2030 H   0  0
   -1.4260    4.6190   -4.8750 H   0  0
   -1.7580    5.2560   -3.2680 H   0  0
    0.5820   -5.3890    2.4750 H   0  0
   -1.6190   -3.0220    3.4160 H   0  0
   -1.4690   -4.3340    2.2520 H   0  0
   -1.5530   -2.6660    1.6930 H   0  0
    4.2210   -3.1060    2.4750 H   0  0
    2.5430    0.1830    2.0430 H   0  0
    4.0410   -0.7330    1.9120 H   0  0
    3.3690   -0.3650    3.4980 H   0  0
    3.0570   -5.2930    2.4750 H   0  0
  1  2  2  0
  1  3  2  0
  1  4  1  0
  1  5  1  0
  6  4  1  0
  5  7  2  0
  5  8  1  0
  6  9  1  0
  6 10  1  0
  7 11  1  0
  7 12  1  0
  8 13  2  0
  8 14  1  0
  9 15  1  0
 10 16  1  0
 11 17  2  0
 15 18  2  0
 15 19  1  0
 17 20  1  0
 18 21  1  0
 18 22  1  0
 19 23  2  0
 19 24  1  0
 21 25  2  0
 13 17  1  0
 23 25  1  0
  4 26  1  0
  6 27  1  0
  9 28  1  0
  9 29  1  0
 10 30  1  0
 10 31  1  0
 11 32  1  0
 12 33  1  0
 12 34  1  0
 12 35  1  0
 13 36  1  0
 14 37  1  0
 14 38  1  0
 14 39  1  0
 16 40  1  0
 16 41  1  0
 16 42  1  0
 20 43  1  0
 20 44  1  0
 20 45  1  0
 21 46  1  0
 22 47  1  0
 22 48  1  0
 22 49  1  0
 23 50  1  0
 24 51  1  0
 24 52  1  0
 24 53  1  0
 25 54  1  0
M  END
> <Name>
CHEMBL3094472

> <IC50 nM>
10000

> <Molecule_ChEMBL_ID>
CHEMBL3094472

> <Smiles>
CCC(Cc1c(C)cccc1C)NS(=O)(=O)c1c(C)cc(C)cc1C

$$$$
CHEMBL1684353
  SciTegic08162514323D

 60 64  0  0  1  0            999 V2000
    8.0080    1.3420   -1.5120 Cl  0  0
    6.5230    0.6430   -1.0100 C   0  0
    5.8380    0.8560    0.1430 C   0  0
    5.7660   -0.2910   -1.7400 C   0  0
    4.6820    0.1150    0.1990 C   0  0
    6.2070    1.7210    1.2050 C   0  0
    4.6150   -0.6150   -0.9800 N   0  0
    3.8160    0.1900    1.3220 C   0  0
    5.3590    1.8110    2.3380 C   0  0
    2.5880   -0.5980    1.3830 C   0  0
    4.1640    1.0450    2.4000 C   0  0
    1.3300    0.0590    1.4240 C   0  0
    2.6580   -2.0120    1.3980 C   0  0
    1.2660    1.3910    1.4120 F   0  0
    0.1310   -0.7050    1.4820 C   0  0
    3.8280   -2.6480    1.3610 F   0  0
    1.4670   -2.7700    1.4550 C   0  0
    0.1990   -2.1330    1.4960 C   0  0
   -1.1860   -0.0060    1.5270 C   0  0  1  0  0  0
   -0.9260   -2.8980    1.5470 N   0  0
   -2.3220   -0.9040    1.0000 C   0  0  2  0  0  0
   -1.4710    0.5000    2.9470 C   0  0
   -2.2930   -2.3180    1.6290 C   0  0
   -2.1930   -1.0140   -0.4140 O   0  0
   -3.2760   -3.2400    0.8950 C   0  0
   -2.7030   -2.2600    3.1060 C   0  0
   -2.6000    0.0840   -1.0470 C   0  0
   -3.0860    1.0390   -0.4880 O   0  0
   -2.4400    0.0840   -2.4020 N   0  0
   -2.8280    1.1720   -3.1390 C   0  0
   -2.0290    1.6230   -4.2070 C   0  0
   -4.0270    1.8400   -2.8280 C   0  0
   -2.4260    2.7400   -4.9630 C   0  0
   -4.4300    2.9570   -3.5820 C   0  0
   -3.6250    3.4020   -4.6470 C   0  0
   -4.0330    4.5450   -5.4200 C   0  0
   -4.3630    5.4670   -6.0410 N   0  0
    5.9820   -0.7110   -2.7130 H   0  0
    7.1130    2.3070    1.1660 H   0  0
    3.9000   -1.2500   -1.2480 H   0  0
    5.6230    2.4630    3.1560 H   0  0
    3.5290    1.1250    3.2720 H   0  0
    1.5390   -3.8500    1.4670 H   0  0
   -1.1470    0.8690    0.8770 H   0  0
   -0.8480   -3.8980    1.5350 H   0  0
   -3.2870   -0.4320    1.1880 H   0  0
   -1.0700    1.5060    3.0840 H   0  0
   -2.5410    0.5140    3.1430 H   0  0
   -1.0040   -0.1480    3.6880 H   0  0
   -3.0080   -3.3650   -0.1540 H   0  0
   -4.2870   -2.8360    0.9360 H   0  0
   -3.2930   -4.2290    1.3560 H   0  0
   -1.8790   -1.9390    3.7420 H   0  0
   -3.0310   -3.2380    3.4530 H   0  0
   -3.5270   -1.5610    3.2500 H   0  0
   -2.0350   -0.7110   -2.8570 H   0  0
   -1.1040    1.1230   -4.4630 H   0  0
   -4.6560    1.5100   -2.0120 H   0  0
   -1.8050    3.0760   -5.7810 H   0  0
   -5.3520    3.4610   -3.3340 H   0  0
  1  2  1  0
  2  3  1  0
  2  4  2  0
  3  5  1  0
  3  6  2  0
  4  7  1  0
  5  8  2  0
  6  9  1  0
  8 10  1  0
  8 11  1  0
 10 12  2  0
 10 13  1  0
 12 14  1  0
 12 15  1  0
 13 16  1  0
 13 17  2  0
 15 18  2  0
 15 19  1  0
 18 20  1  0
 19 21  1  0
 19 22  1  0
 20 23  1  0
 21 24  1  0
 23 25  1  0
 23 26  1  0
 24 27  1  0
 27 28  2  0
 27 29  1  0
 29 30  1  0
 30 31  2  0
 30 32  1  0
 31 33  1  0
 32 34  2  0
 33 35  2  0
 35 36  1  0
 36 37  3  0
  5  7  1  0
  9 11  2  0
 17 18  1  0
 21 23  1  0
 34 35  1  0
  4 38  1  0
  6 39  1  0
  7 40  1  0
  9 41  1  0
 11 42  1  0
 17 43  1  0
 19 44  1  0
 20 45  1  0
 21 46  1  0
 22 47  1  0
 22 48  1  0
 22 49  1  0
 25 50  1  0
 25 51  1  0
 25 52  1  0
 26 53  1  0
 26 54  1  0
 26 55  1  0
 29 56  1  0
 31 57  1  0
 32 58  1  0
 33 59  1  0
 34 60  1  0
M  END
> <Name>
CHEMBL1684353

> <IC50 nM>
5

> <Molecule_ChEMBL_ID>
CHEMBL1684353

> <Smiles>
C[C@H]1c2c(cc(F)c(-c3cccc4c(Cl)c[nH]c34)c2F)NC(C)(C)[C@@H]1OC(=O)Nc1ccc(C#N)cc1

$$$$
CHEMBL1684354
  SciTegic08162514323D

 59 63  0  0  1  0            999 V2000
   -4.0720    4.6780   -5.6800 Cl  0  0
   -3.5840    3.3150   -4.7600 C   0  0
   -2.3890    2.6450   -5.0740 C   0  0
   -4.3790    2.8630   -3.6890 C   0  0
   -1.9860    1.5290   -4.3180 C   0  0
   -3.9790    1.7480   -2.9360 C   0  0
   -2.7810    1.0780   -3.2480 C   0  0
   -2.3890   -0.0100   -2.5120 N   0  0
   -2.5470   -0.0080   -1.1540 C   0  0
   -3.0330    0.9490   -0.5980 O   0  0
   -2.1410   -1.1050   -0.5230 O   0  0
   -2.2680   -0.9960    0.8910 C   0  0  1  0  0  0
   -2.2400   -2.4080    1.5220 C   0  0
   -1.1310   -0.0980    1.4180 C   0  0  2  0  0  0
   -0.8710   -2.9880    1.4380 N   0  0
   -3.2210   -3.3300    0.7870 C   0  0
   -2.6480   -2.3500    2.9960 C   0  0
    0.1860   -0.7950    1.3730 C   0  0
   -1.4160    0.4100    2.8380 C   0  0
    0.2520   -2.2250    1.3870 C   0  0
    1.3850   -0.0330    1.3160 C   0  0
    1.5220   -2.8610    1.3460 C   0  0
    1.3180    1.3010    1.3030 F   0  0
    2.6430   -0.6870    1.2730 C   0  0
    2.7110   -2.1010    1.2890 C   0  0
    3.8710    0.0980    1.2130 C   0  0
    3.8830   -2.7380    1.2540 F   0  0
    4.1390    0.9610    0.1190 C   0  0
    4.8240    0.0060    2.2620 C   0  0
    3.4240    1.2660   -1.0330 N   0  0
    5.2950    1.6970    0.0640 C   0  0
    6.0200    0.7720    2.1990 C   0  0
    4.1920    2.2030   -1.7680 C   0  0
    6.2660    1.6270    1.0940 C   0  0
    5.3730    2.4590   -1.0490 C   0  0
   -1.7680    2.9770   -5.8950 H   0  0
   -5.3010    3.3690   -3.4380 H   0  0
   -1.0620    1.0270   -4.5740 H   0  0
   -4.6040    1.4160   -2.1170 H   0  0
   -1.9880   -0.8030   -2.9670 H   0  0
   -3.2320   -0.5210    1.0780 H   0  0
   -1.0920    0.7770    0.7680 H   0  0
   -0.7950   -3.9880    1.4260 H   0  0
   -2.9530   -3.4570   -0.2620 H   0  0
   -4.2320   -2.9260    0.8240 H   0  0
   -3.2400   -4.3180    1.2460 H   0  0
   -1.8260   -2.0250    3.6330 H   0  0
   -2.9730   -3.3300    3.3460 H   0  0
   -3.4770   -1.6540    3.1390 H   0  0
   -1.0200    1.4160    2.9750 H   0  0
   -2.4860    0.4200    3.0350 H   0  0
   -0.9450   -0.2360    3.5780 H   0  0
    1.5940   -3.9390    1.3570 H   0  0
    4.6540   -0.6410    3.1110 H   0  0
    2.5390    0.8990   -1.2970 H   0  0
    6.7460    0.7010    2.9960 H   0  0
    3.8850    2.6230   -2.7150 H   0  0
    7.1760    2.2090    1.0490 H   0  0
    6.1720    3.1290   -1.3380 H   0  0
  1  2  1  0
  2  3  2  0
  2  4  1  0
  3  5  1  0
  4  6  2  0
  5  7  2  0
  7  8  1  0
  8  9  1  0
  9 10  2  0
  9 11  1  0
 12 11  1  0
 12 13  1  0
 12 14  1  0
 13 15  1  0
 13 16  1  0
 13 17  1  0
 14 18  1  0
 14 19  1  0
 15 20  1  0
 18 21  2  0
 20 22  2  0
 21 23  1  0
 21 24  1  0
 22 25  1  0
 24 26  1  0
 25 27  1  0
 26 28  2  0
 26 29  1  0
 28 30  1  0
 28 31  1  0
 29 32  2  0
 30 33  1  0
 31 34  2  0
 31 35  1  0
  6  7  1  0
 18 20  1  0
 24 25  2  0
 32 34  1  0
 33 35  2  0
  3 36  1  0
  4 37  1  0
  5 38  1  0
  6 39  1  0
  8 40  1  0
 12 41  1  0
 14 42  1  0
 15 43  1  0
 16 44  1  0
 16 45  1  0
 16 46  1  0
 17 47  1  0
 17 48  1  0
 17 49  1  0
 19 50  1  0
 19 51  1  0
 19 52  1  0
 22 53  1  0
 29 54  1  0
 30 55  1  0
 32 56  1  0
 33 57  1  0
 34 58  1  0
 35 59  1  0
M  END
> <Name>
CHEMBL1684354

> <IC50 nM>
29

> <Molecule_ChEMBL_ID>
CHEMBL1684354

> <Smiles>
C[C@H]1c2c(cc(F)c(-c3cccc4cc[nH]c34)c2F)NC(C)(C)[C@@H]1OC(=O)Nc1ccc(Cl)cc1

$$$$
CHEMBL2023615
  SciTegic08162514323D

 83 90  0  0  1  0            999 V2000
   -8.4380   -4.5270    4.2870 F   0  0
   -7.9690   -3.7660    3.3030 C   0  0
   -8.8320   -3.3240    2.2830 C   0  0
   -6.6110   -3.4000    3.2790 C   0  0
   -8.3380   -2.5200    1.2420 C   0  0
   -6.1150   -2.5960    2.2400 C   0  0
   -6.9790   -2.1520    1.2190 C   0  0
   -6.5000   -1.3730    0.2130 N   0  0
   -6.7790   -1.5570   -1.1070 N   0  0
   -5.6740   -0.3050    0.3590 C   0  0
   -6.1820   -0.6370   -1.9120 C   0  0
   -5.5250    0.1250   -0.9470 C   0  0
   -5.0250    0.3140    1.5310 C   0  0
   -4.7010    1.3730   -1.2090 C   0  0
   -4.0660    1.2420    1.3160 C   0  0
   -3.6580    1.7090   -0.0860 C   0  0  1  0  0  0
   -3.2560    1.8070    2.4570 C   0  0
   -2.2730    1.0120   -0.2750 C   0  0  1  0  0  0
   -3.4840    3.2380   -0.0800 C   0  0
   -1.8280    1.2560    2.2850 C   0  0
   -1.6430    1.1170   -1.6930 C   0  0  1  0  0  0
   -1.2680    1.4340    0.8480 C   0  0  1  0  0  0
   -1.4920    2.4690   -2.0820 O   0  0
   -0.2830    0.3910   -1.7970 C   0  0
   -0.0100    0.5610    0.6860 C   0  0  1  0  0  0
    0.6870    0.7810   -0.6660 C   0  0  1  0  0  0
    1.1330    0.7850    1.6740 C   0  0
    1.9610   -0.0800   -0.4900 C   0  0  1  0  0  0
    1.1310    2.2460   -0.8070 C   0  0
    2.3790    0.2500    0.9590 C   0  0
    1.6540   -1.4630   -0.5680 O   0  0
    3.0430    0.1800   -1.5100 C   0  0
    2.7720    0.5980   -2.6110 O   0  0
    4.4690   -0.0940   -1.1150 C   0  0
    5.2620   -0.2560   -2.2810 O   0  0
    6.5680   -0.5080   -2.1250 C   0  0
    7.0900   -0.6000   -0.8520 N   0  0
    7.3870   -0.6760   -3.2680 C   0  0
    8.4340   -0.8590   -0.6620 C   0  0
    8.7700   -0.9430   -3.1000 C   0  0
    9.3030   -1.0370   -1.7870 C   0  0
    8.9710   -0.9550    0.6460 C   0  0
   10.6820   -1.3010   -1.5920 C   0  0
   10.3460   -1.2210    0.8360 C   0  0
   11.1990   -1.3930   -0.2790 C   0  0
   -9.8750   -3.6040    2.2970 H   0  0
   -5.9450   -3.7380    4.0610 H   0  0
   -9.0180   -2.1900    0.4690 H   0  0
   -5.0680   -2.3240    2.2380 H   0  0
   -6.2380   -0.5570   -2.9900 H   0  0
   -5.2930    0.0120    2.5330 H   0  0
   -5.4300    2.1840   -1.2660 H   0  0
   -4.2520    1.3380   -2.1990 H   0  0
   -3.2620    2.8970    2.4340 H   0  0
   -3.6680    1.5100    3.4220 H   0  0
   -2.4530   -0.0590   -0.1450 H   0  0
   -4.3690    3.7250    0.3320 H   0  0
   -2.6130    3.5250    0.5100 H   0  0
   -3.3400    3.6130   -1.0940 H   0  0
   -1.1660    1.7360    3.0060 H   0  0
   -1.8360    0.1970    2.5450 H   0  0
   -2.3010    0.6580   -2.4300 H   0  0
   -1.0100    2.4860    0.7170 H   0  0
   -1.2850    2.4730   -3.0290 H   0  0
   -0.4800   -0.6800   -1.7640 H   0  0
    0.1760    0.5720   -2.7700 H   0  0
   -0.3160   -0.4750    0.7680 H   0  0
    1.2460    1.8380    1.8890 H   0  0
    0.9510    0.2830    2.6130 H   0  0
    1.9410    2.4920   -0.1190 H   0  0
    0.3030    2.9220   -0.6000 H   0  0
    1.4800    2.4470   -1.8180 H   0  0
    3.1450    1.0120    0.9730 H   0  0
    2.7930   -0.6040    1.4790 H   0  0
    2.4490   -1.9490   -0.2970 H   0  0
    4.5220   -1.0160   -0.5350 H   0  0
    4.8650    0.7500   -0.5490 H   0  0
    6.9650   -0.6020   -4.2600 H   0  0
    9.3970   -1.0700   -3.9710 H   0  0
    8.3360   -0.8260    1.5140 H   0  0
   11.3480   -1.4360   -2.4320 H   0  0
   10.7460   -1.2910    1.8360 H   0  0
   12.2500   -1.5960   -0.1270 H   0  0
  1  2  1  0
  2  3  2  0
  2  4  1  0
  3  5  1  0
  4  6  2  0
  5  7  2  0
  7  8  1  0
  8  9  1  0
  8 10  1  0
  9 11  2  0
 10 12  2  0
 10 13  1  0
 12 14  1  0
 13 15  2  0
 14 16  1  0
 15 17  1  0
 16 18  1  0
 16 19  1  0
 17 20  1  0
 18 21  1  0
 18 22  1  0
 21 23  1  0
 21 24  1  0
 22 25  1  0
 24 26  1  0
 25 27  1  0
 26 28  1  0
 26 29  1  0
 27 30  1  0
 28 31  1  0
 28 32  1  0
 32 33  2  0
 32 34  1  0
 34 35  1  0
 35 36  1  0
 36 37  2  0
 36 38  1  0
 37 39  1  0
 38 40  2  0
 39 41  1  0
 39 42  2  0
 41 43  2  0
 42 44  1  0
 43 45  1  0
  6  7  1  0
 11 12  1  0
 15 16  1  0
 22 20  1  0
 25 26  1  0
 28 30  1  0
 40 41  1  0
 44 45  2  0
  3 46  1  0
  4 47  1  0
  5 48  1  0
  6 49  1  0
 11 50  1  0
 13 51  1  0
 14 52  1  0
 14 53  1  0
 17 54  1  0
 17 55  1  0
 18 56  1  0
 19 57  1  0
 19 58  1  0
 19 59  1  0
 20 60  1  0
 20 61  1  0
 21 62  1  0
 22 63  1  0
 23 64  1  0
 24 65  1  0
 24 66  1  0
 25 67  1  0
 27 68  1  0
 27 69  1  0
 29 70  1  0
 29 71  1  0
 29 72  1  0
 30 73  1  0
 30 74  1  0
 31 75  1  0
 34 76  1  0
 34 77  1  0
 38 78  1  0
 40 79  1  0
 42 80  1  0
 43 81  1  0
 44 82  1  0
 45 83  1  0
M  END
> <Name>
CHEMBL2023615

> <IC50 nM>
1.8

> <Molecule_ChEMBL_ID>
CHEMBL2023615

> <Smiles>
C[C@]12Cc3cnn(-c4ccc(F)cc4)c3C=C1CC[C@@H]1[C@@H]2[C@@H](O)C[C@@]2(C)[C@H]1CC[C@]2(O)C(=O)COc1ccc2ccccc2n1

$$$$
CHEMBL2023618
  SciTegic08162514323D

 83 90  0  0  1  0            999 V2000
    6.2050    0.5880   -0.9360 S   0  0
    7.5840   -0.3980   -0.9940 C   0  0
    4.9400   -0.5490   -0.5250 C   0  0
    7.7700   -1.7560   -0.8050 N   0  0
    8.7400    0.4080   -1.3030 C   0  0
    3.6210    0.1740   -0.4490 C   0  0
    9.0020   -2.3610   -0.8980 C   0  0
   10.0330   -0.2190   -1.4020 C   0  0
    8.6640    1.8160   -1.5200 C   0  0
    3.5740    1.3590   -0.2130 O   0  0
    2.3590   -0.6250   -0.6740 C   0  0  2  0  0  0
   10.1580   -1.6150   -1.1970 C   0  0
   11.1900    0.5430   -1.7030 C   0  0
    9.8220    2.5680   -1.8200 C   0  0
    2.1660   -0.6930   -2.0780 O   0  0
    1.0980   -0.0490    0.0080 C   0  0  2  0  0  0
    2.4240   -2.0610   -0.0960 C   0  0
   11.0800    1.9360   -1.9120 C   0  0
    0.1740   -1.2830   -0.0820 C   0  0  1  0  0  0
    0.4100    1.2030   -0.5900 C   0  0
    1.4790    0.2460    1.4710 C   0  0
    1.0470   -2.3870    0.5020 C   0  0
   -1.1780   -0.8890    0.5230 C   0  0  1  0  0  0
   -0.9060    0.8750   -1.3260 C   0  0  1  0  0  0
   -1.9320    0.0080   -0.5000 C   0  0  2  0  0  0
   -2.0530   -2.0740    0.9160 C   0  0
   -1.4360    2.0760   -1.8420 O   0  0
   -3.1910    0.6680    0.1700 C   0  0  2  0  0  0
   -3.2910   -1.5570    1.6450 C   0  0
   -4.0020   -0.4100    0.9410 C   0  0
   -4.0550    1.4430   -0.8950 C   0  0
   -2.7250    1.6760    1.2290 C   0  0
   -5.3500   -0.3650    1.0390 C   0  0
   -5.5330    1.5760   -0.5640 C   0  0
   -6.0900    0.6900    0.3340 C   0  0
   -6.4100    2.5140   -1.1050 C   0  0
   -7.3930    1.0720    0.3420 N   0  0
   -7.5610    2.1350   -0.4900 N   0  0
   -8.3850    0.4940    1.0660 C   0  0
   -8.1780    0.1820    2.4240 C   0  0
   -9.6250    0.2070    0.4650 C   0  0
   -9.2050   -0.4180    3.1740 C   0  0
  -10.6520   -0.3910    1.2150 C   0  0
  -10.4430   -0.7030    2.5700 C   0  0
  -11.4160   -1.2700    3.2810 F   0  0
    4.8910   -1.3280   -1.2850 H   0  0
    5.1640   -1.0120    0.4360 H   0  0
    9.0820   -3.4280   -0.7420 H   0  0
    7.7360    2.3670   -1.4670 H   0  0
   11.1130   -2.1150   -1.2660 H   0  0
   12.1620    0.0760   -1.7750 H   0  0
    9.7440    3.6330   -1.9820 H   0  0
    2.8730   -1.2500   -2.4380 H   0  0
    3.1700   -2.1350    0.6820 H   0  0
    2.7010   -2.7910   -0.8460 H   0  0
   11.9610    2.5180   -2.1410 H   0  0
   -0.0140   -1.5700   -1.1070 H   0  0
    1.1040    1.7230   -1.2520 H   0  0
    0.1800    1.9140    0.2050 H   0  0
    2.0180   -0.5840    1.9260 H   0  0
    0.5880    0.4340    2.0700 H   0  0
    2.1130    1.1310    1.5330 H   0  0
    1.0680   -2.3400    1.5820 H   0  0
    0.6990   -3.3710    0.2230 H   0  0
   -0.9920   -0.3220    1.4360 H   0  0
   -0.6310    0.3010   -2.2130 H   0  0
   -2.3500   -0.6700   -1.2480 H   0  0
   -2.3380   -2.6430    0.0290 H   0  0
   -1.5060   -2.7580    1.5660 H   0  0
   -0.7730    2.4430   -2.4470 H   0  0
   -3.0020   -1.2130    2.6390 H   0  0
   -3.9770   -2.3910    1.8010 H   0  0
   -3.9920    0.9430   -1.8630 H   0  0
   -3.6820    2.4590   -1.0390 H   0  0
   -3.5680    2.2500    1.6110 H   0  0
   -2.2400    1.1640    2.0610 H   0  0
   -2.0080    2.3770    0.8050 H   0  0
   -5.8850   -1.0940    1.6310 H   0  0
   -6.2640    3.3220   -1.8110 H   0  0
   -7.2330    0.3930    2.9060 H   0  0
   -9.8050    0.4410   -0.5760 H   0  0
   -9.0410   -0.6560    4.2150 H   0  0
  -11.6020   -0.6070    0.7480 H   0  0
  1  2  1  0
  1  3  1  0
  2  4  2  0
  2  5  1  0
  3  6  1  0
  4  7  1  0
  5  8  1  0
  5  9  2  0
  6 10  2  0
  6 11  1  0
  7 12  2  0
  8 13  2  0
  9 14  1  0
 11 15  1  0
 11 16  1  0
 11 17  1  0
 13 18  1  0
 16 19  1  0
 16 20  1  0
 16 21  1  0
 17 22  1  0
 19 23  1  0
 20 24  1  0
 25 23  1  0
 23 26  1  0
 24 27  1  0
 25 28  1  0
 26 29  1  0
 28 30  1  0
 28 31  1  0
 28 32  1  0
 30 33  2  0
 31 34  1  0
 33 35  1  0
 34 36  1  0
 35 37  1  0
 36 38  2  0
 37 39  1  0
 39 40  2  0
 39 41  1  0
 40 42  1  0
 41 43  2  0
 42 44  2  0
 44 45  1  0
  8 12  1  0
 14 18  2  0
 19 22  1  0
 24 25  1  0
 29 30  1  0
 34 35  2  0
 37 38  1  0
 43 44  1  0
  3 46  1  0
  3 47  1  0
  7 48  1  0
  9 49  1  0
 12 50  1  0
 13 51  1  0
 14 52  1  0
 15 53  1  0
 17 54  1  0
 17 55  1  0
 18 56  1  0
 19 57  1  0
 20 58  1  0
 20 59  1  0
 21 60  1  0
 21 61  1  0
 21 62  1  0
 22 63  1  0
 22 64  1  0
 23 65  1  0
 24 66  1  0
 25 67  1  0
 26 68  1  0
 26 69  1  0
 27 70  1  0
 29 71  1  0
 29 72  1  0
 31 73  1  0
 31 74  1  0
 32 75  1  0
 32 76  1  0
 32 77  1  0
 33 78  1  0
 36 79  1  0
 40 80  1  0
 41 81  1  0
 42 82  1  0
 43 83  1  0
M  END
> <Name>
CHEMBL2023618

> <IC50 nM>
1.6

> <Molecule_ChEMBL_ID>
CHEMBL2023618

> <Smiles>
C[C@]12Cc3cnn(-c4ccc(F)cc4)c3C=C1CC[C@@H]1[C@@H]2[C@@H](O)C[C@@]2(C)[C@H]1CC[C@]2(O)C(=O)CSc1nccc2ccccc12

$$$$
CHEMBL2024025
  SciTegic08162514323D

 67 72  0  0  1  0            999 V2000
    5.4880   -1.2520    1.4300 S   0  0
    5.5470   -1.8650   -0.1430 C   0  0
    4.4320    0.1330    1.2600 C   0  0
    5.0200   -1.5740   -1.4040 O   0  0
    6.3710   -2.9940   -0.1440 N   0  0
    3.0000   -0.3280    1.2480 C   0  0
    5.5660   -2.5630   -2.1190 C   0  0
    6.3610   -3.4100   -1.4220 C   0  0
    2.7250   -1.5000    1.1310 O   0  0
    1.9160    0.7150    1.3850 C   0  0  2  0  0  0
    5.4100   -2.8140   -3.5060 C   0  0
    7.0660   -4.5100   -1.8220 N   0  0
    1.8200    1.0310    2.7640 O   0  0
    0.5390    0.2930    0.8200 C   0  0  2  0  0  0
    2.2070    2.0160    0.6060 C   0  0
    6.1070   -3.9470   -4.0470 C   0  0
    6.9200   -4.7680   -3.1870 C   0  0
   -0.1900    1.6430    0.7480 C   0  0  1  0  0  0
   -0.3220   -0.6620    1.6700 C   0  0
    0.7710   -0.2660   -0.5940 C   0  0
    0.8590    2.5410    0.0920 C   0  0
   -1.5610    1.5450    0.0570 C   0  0  1  0  0  0
   -1.7640   -0.8030    1.1250 C   0  0  1  0  0  0
   -2.4530    0.5720    0.8650 C   0  0  2  0  0  0
   -2.1860    2.9470    0.0140 C   0  0
   -1.7340   -1.5940   -0.0470 O   0  0
   -3.9180    0.4900    0.3200 C   0  0  2  0  0  0
   -3.5980    2.9220   -0.5680 C   0  0
   -4.4900    1.8870    0.0880 C   0  0
   -4.7850   -0.3140    1.3260 C   0  0
   -3.9770   -0.1860   -1.0590 C   0  0
   -5.7580    2.2130    0.4280 C   0  0
   -6.2930   -0.2030    1.0630 C   0  0
   -6.7130    1.2420    0.9880 C   0  0
   -7.7990    1.6020    1.3790 O   0  0
    4.5940    0.8160    2.0940 H   0  0
    4.6620    0.6540    0.3300 H   0  0
    4.7950   -2.1840   -4.1290 H   0  0
    2.6560    1.4510    3.0220 H   0  0
    2.7170    2.7580    1.2050 H   0  0
    2.8520    1.8220   -0.2420 H   0  0
    6.0230   -4.1820   -5.0980 H   0  0
    7.4360   -5.6150   -3.6130 H   0  0
   -0.3560    2.0120    1.7520 H   0  0
    0.1600   -1.6390    1.7460 H   0  0
   -0.3910   -0.2890    2.6920 H   0  0
    1.5330    0.2970   -1.1330 H   0  0
   -0.1480   -0.2290   -1.1800 H   0  0
    1.0940   -1.3070   -0.5490 H   0  0
    0.8110    2.4550   -0.9840 H   0  0
    0.7090    3.5800    0.3420 H   0  0
   -1.4410    1.1760   -0.9630 H   0  0
   -2.3400   -1.3710    1.8520 H   0  0
   -2.5390    1.0230    1.8560 H   0  0
   -1.5660    3.6210   -0.5780 H   0  0
   -2.2210    3.3690    1.0220 H   0  0
   -1.4790   -2.4900    0.2210 H   0  0
   -4.0370    3.9180   -0.4860 H   0  0
   -3.5430    2.7010   -1.6350 H   0  0
   -4.5920    0.0410    2.3400 H   0  0
   -4.5040   -1.3670    1.3200 H   0  0
   -4.9120    0.0530   -1.5640 H   0  0
   -3.1430    0.1390   -1.6820 H   0  0
   -3.9160   -1.2700   -0.9590 H   0  0
   -6.1000    3.2270    0.2770 H   0  0
   -6.5490   -0.6990    0.1270 H   0  0
   -6.8500   -0.7110    1.8540 H   0  0
  1  2  1  0
  1  3  1  0
  2  4  1  0
  2  5  2  0
  3  6  1  0
  4  7  1  0
  5  8  1  0
  6  9  2  0
  6 10  1  0
  7 11  1  0
  8 12  1  0
 10 13  1  0
 10 14  1  0
 10 15  1  0
 11 16  2  0
 12 17  2  0
 14 18  1  0
 14 19  1  0
 14 20  1  0
 15 21  1  0
 18 22  1  0
 19 23  1  0
 24 22  1  0
 22 25  1  0
 23 26  1  0
 24 27  1  0
 25 28  1  0
 27 29  1  0
 27 30  1  0
 27 31  1  0
 29 32  2  0
 30 33  1  0
 32 34  1  0
 34 35  2  0
  7  8  2  0
 16 17  1  0
 18 21  1  0
 23 24  1  0
 28 29  1  0
 33 34  1  0
  3 36  1  0
  3 37  1  0
 11 38  1  0
 13 39  1  0
 15 40  1  0
 15 41  1  0
 16 42  1  0
 17 43  1  0
 18 44  1  0
 19 45  1  0
 19 46  1  0
 20 47  1  0
 20 48  1  0
 20 49  1  0
 21 50  1  0
 21 51  1  0
 22 52  1  0
 23 53  1  0
 24 54  1  0
 25 55  1  0
 25 56  1  0
 26 57  1  0
 28 58  1  0
 28 59  1  0
 30 60  1  0
 30 61  1  0
 31 62  1  0
 31 63  1  0
 31 64  1  0
 32 65  1  0
 33 66  1  0
 33 67  1  0
M  END
> <Name>
CHEMBL2024025

> <IC50 nM>
61.3

> <Molecule_ChEMBL_ID>
CHEMBL2024025

> <Smiles>
C[C@]12CCC(=O)C=C1CC[C@@H]1[C@@H]2[C@@H](O)C[C@@]2(C)[C@H]1CC[C@]2(O)C(=O)CSc1nc2ncccc2o1

$$$$
CHEMBL2024027
  SciTegic08162514323D

 71 76  0  0  1  0            999 V2000
    4.7460   -1.7720   -0.5630 S   0  0
    5.1390   -0.1560   -0.8650 C   0  0
    4.0610   -1.7010    1.0450 C   0  0
    5.0880    1.1070   -0.3030 O   0  0
    5.7070   -0.0200   -2.0760 N   0  0
    2.6270   -2.1580    0.9980 C   0  0
    5.6390    1.9820   -1.2210 C   0  0
    6.0060    1.2560   -2.2890 N   0  0
    2.3500   -3.3260    0.8550 O   0  0
    1.5430   -1.1150    1.1350 C   0  0  2  0  0  0
    5.7970    3.4450   -1.0570 C   0  0
    1.4470   -0.8010    2.5140 O   0  0
    0.1640   -1.5390    0.5700 C   0  0  2  0  0  0
    1.8340    0.1850    0.3550 C   0  0
    6.3790    4.2090   -2.0820 C   0  0
    5.3650    4.0700    0.1270 C   0  0
   -0.5630   -0.1880    0.5000 C   0  0  1  0  0  0
   -0.6950   -2.4940    1.4200 C   0  0
    0.3980   -2.0980   -0.8440 C   0  0
    0.4860    0.7090   -0.1580 C   0  0
    6.5290    5.6000   -1.9260 C   0  0
    5.5160    5.4590    0.2830 C   0  0
   -1.9340   -0.2870   -0.1930 C   0  0  1  0  0  0
   -2.1370   -2.6330    0.8750 C   0  0  1  0  0  0
    6.0980    6.2230   -0.7440 C   0  0
   -2.8260   -1.2600    0.6150 C   0  0  2  0  0  0
   -2.5590    1.1170   -0.2340 C   0  0
   -2.1070   -3.4260   -0.2970 O   0  0
   -4.2910   -1.3420    0.0700 C   0  0  2  0  0  0
   -3.9730    1.0920   -0.8160 C   0  0
   -4.8630    0.0570   -0.1620 C   0  0
   -5.1600   -2.1450    1.0760 C   0  0
   -4.3500   -2.0160   -1.3070 C   0  0
   -6.1310    0.3810    0.1780 C   0  0
   -6.6660   -2.0350    0.8130 C   0  0
   -7.0860   -0.5880    0.7380 C   0  0
   -8.1720   -0.2310    1.1290 O   0  0
    4.6330   -2.3460    1.7130 H   0  0
    4.1090   -0.6800    1.4180 H   0  0
    2.2890   -0.3970    2.7750 H   0  0
    2.3440    0.9280    0.9550 H   0  0
    2.4790   -0.0080   -0.4920 H   0  0
    6.7130    3.7360   -2.9940 H   0  0
    4.9180    3.4900    0.9200 H   0  0
   -0.7290    0.1800    1.5040 H   0  0
   -0.2130   -3.4690    1.4960 H   0  0
   -0.7640   -2.1190    2.4410 H   0  0
    1.1640   -1.5370   -1.3810 H   0  0
   -0.5200   -2.0550   -1.4300 H   0  0
    0.7170   -3.1390   -0.7990 H   0  0
    0.4380    0.6230   -1.2340 H   0  0
    0.3360    1.7500    0.0920 H   0  0
    6.9770    6.1860   -2.7150 H   0  0
    5.1840    5.9390    1.1910 H   0  0
   -1.8140   -0.6560   -1.2130 H   0  0
   -2.7130   -3.2030    1.6020 H   0  0
    6.2130    7.2910   -0.6230 H   0  0
   -2.9120   -0.8070    1.6070 H   0  0
   -1.9390    1.7910   -0.8280 H   0  0
   -2.5940    1.5370    0.7710 H   0  0
   -1.8380   -4.3190   -0.0310 H   0  0
   -4.4120    2.0860   -0.7360 H   0  0
   -3.9180    0.8710   -1.8850 H   0  0
   -4.9650   -1.7910    2.0900 H   0  0
   -4.8770   -3.1970    1.0700 H   0  0
   -5.2850   -1.7790   -1.8130 H   0  0
   -3.5180   -1.6920   -1.9320 H   0  0
   -4.2890   -3.1000   -1.2090 H   0  0
   -6.4750    1.3940    0.0270 H   0  0
   -6.9220   -2.5290   -0.1230 H   0  0
   -7.2230   -2.5410    1.6040 H   0  0
  1  2  1  0
  1  3  1  0
  2  4  1  0
  2  5  2  0
  3  6  1  0
  4  7  1  0
  5  8  1  0
  6  9  2  0
  6 10  1  0
  7 11  1  0
 10 12  1  0
 10 13  1  0
 10 14  1  0
 11 15  2  0
 11 16  1  0
 13 17  1  0
 13 18  1  0
 13 19  1  0
 14 20  1  0
 15 21  1  0
 16 22  2  0
 17 23  1  0
 18 24  1  0
 21 25  2  0
 26 23  1  0
 23 27  1  0
 24 28  1  0
 26 29  1  0
 27 30  1  0
 29 31  1  0
 29 32  1  0
 29 33  1  0
 31 34  2  0
 32 35  1  0
 34 36  1  0
 36 37  2  0
  7  8  2  0
 17 20  1  0
 22 25  1  0
 24 26  1  0
 30 31  1  0
 35 36  1  0
  3 38  1  0
  3 39  1  0
 12 40  1  0
 14 41  1  0
 14 42  1  0
 15 43  1  0
 16 44  1  0
 17 45  1  0
 18 46  1  0
 18 47  1  0
 19 48  1  0
 19 49  1  0
 19 50  1  0
 20 51  1  0
 20 52  1  0
 21 53  1  0
 22 54  1  0
 23 55  1  0
 24 56  1  0
 25 57  1  0
 26 58  1  0
 27 59  1  0
 27 60  1  0
 28 61  1  0
 30 62  1  0
 30 63  1  0
 32 64  1  0
 32 65  1  0
 33 66  1  0
 33 67  1  0
 33 68  1  0
 34 69  1  0
 35 70  1  0
 35 71  1  0
M  END
> <Name>
CHEMBL2024027

> <IC50 nM>
29.2

> <Molecule_ChEMBL_ID>
CHEMBL2024027

> <Smiles>
C[C@]12CCC(=O)C=C1CC[C@@H]1[C@@H]2[C@@H](O)C[C@@]2(C)[C@H]1CC[C@]2(O)C(=O)CSc1nnc(-c2ccccc2)o1

$$$$
CHEMBL3126948
  SciTegic08162514323D

 49 51  0  0  1  0            999 V2000
   -5.6530   -0.9360    1.9590 F   0  0
   -5.0160   -0.4800    0.8810 C   0  0
   -3.7130    0.0310    0.9960 C   0  0
   -5.6510   -0.5120   -0.3730 C   0  0
   -3.0390    0.5140   -0.1410 C   0  0
   -4.9810   -0.0290   -1.5100 C   0  0
   -3.6760    0.4820   -1.3980 C   0  0
   -1.6580    1.0510    0.0000 C   0  0
   -2.9810    0.9880   -2.6130 C   0  0
   -0.9860   -0.2400   -0.4670 C   0  0
   -1.3340    1.3930    1.4550 C   0  0
   -1.4120    2.2230   -0.9510 C   0  0
    0.5370   -0.1840   -0.3610 C   0  0  2  0  0  0
    0.9510    1.1330   -0.6480 O   0  0
    1.0860   -1.1050   -1.4510 C   0  0
    1.0470   -0.5510    1.0330 C   0  0
    0.7540   -2.4020   -1.1580 F   0  0
    2.4490   -0.9840   -1.5080 F   0  0
    0.5430   -0.7560   -2.6600 F   0  0
    2.5590   -0.5900    1.0720 C   0  0
    3.3070   -1.7680    1.1210 N   0  0
    3.4710    0.4710    1.0680 C   0  0
    4.6330   -1.3770    1.1430 C   0  0
    4.7540    0.0100    1.1110 C   0  0
    5.8180   -2.1540    1.1920 C   0  0
    5.9670    0.6720    1.1250 N   0  0
    7.0570   -1.4530    1.2050 C   0  0
    7.0980   -0.0590    1.1700 N   0  0
   -3.2270    0.0530    1.9630 H   0  0
   -6.6530   -0.9020   -0.4670 H   0  0
   -5.4730   -0.0570   -2.4710 H   0  0
   -2.9430    2.0780   -2.5840 H   0  0
   -1.9920    0.5350   -2.6800 H   0  0
   -3.5430    0.6970   -3.5000 H   0  0
   -1.2930   -0.4880   -1.4820 H   0  0
   -1.3790   -1.0980    0.0800 H   0  0
   -2.1130    2.0020    1.9140 H   0  0
   -0.3970    1.9470    1.5220 H   0  0
   -1.2270    0.4860    2.0490 H   0  0
   -0.6580    2.9080   -0.5620 H   0  0
   -2.3280    2.7910   -1.1090 H   0  0
   -1.0680    1.8650   -1.9220 H   0  0
    1.1170    1.5740    0.1990 H   0  0
    0.6500   -1.5160    1.3480 H   0  0
    0.6840    0.1600    1.7760 H   0  0
    2.9570   -2.6970    1.1370 H   0  0
    3.1890    1.5160    1.0350 H   0  0
    5.7850   -3.2340    1.2170 H   0  0
    7.9820   -2.0100    1.2420 H   0  0
  1  2  1  0
  2  3  2  0
  2  4  1  0
  3  5  1  0
  4  6  2  0
  5  7  2  0
  5  8  1  0
  7  9  1  0
  8 10  1  0
  8 11  1  0
  8 12  1  0
 10 13  1  0
 13 14  1  0
 13 15  1  0
 13 16  1  0
 15 17  1  0
 15 18  1  0
 15 19  1  0
 16 20  1  0
 20 21  1  0
 20 22  2  0
 21 23  1  0
 22 24  1  0
 23 25  1  0
 24 26  1  0
 25 27  2  0
 26 28  2  0
  6  7  1  0
 23 24  2  0
 27 28  1  0
  3 29  1  0
  4 30  1  0
  6 31  1  0
  9 32  1  0
  9 33  1  0
  9 34  1  0
 10 35  1  0
 10 36  1  0
 11 37  1  0
 11 38  1  0
 11 39  1  0
 12 40  1  0
 12 41  1  0
 12 42  1  0
 14 43  1  0
 16 44  1  0
 16 45  1  0
 21 46  1  0
 22 47  1  0
 25 48  1  0
 27 49  1  0
M  END
> <Name>
CHEMBL3126948

> <IC50 nM>
9

> <Molecule_ChEMBL_ID>
CHEMBL3126948

> <Smiles>
Cc1ccc(F)cc1C(C)(C)C[C@@](O)(Cc1cc2nnccc2[nH]1)C(F)(F)F

$$$$
CHEMBL4072756
  SciTegic08162514323D

 56 59  0  0  1  0            999 V2000
    5.0760    8.1290   -0.6820 F   0  0
    4.5880    6.8950   -0.5860 C   0  0
    5.1210    5.8650   -1.3830 C   0  0
    3.5410    6.6190    0.3110 C   0  0
    4.6060    4.5610   -1.2810 C   0  0
    3.0260    5.3150    0.4120 C   0  0
    3.5570    4.2810   -0.3850 C   0  0
    3.0590    3.0220   -0.2870 N   0  0
    3.8090    1.8670   -0.2640 N   0  0
    1.7520    2.6680   -0.1970 C   0  0
    3.0780    0.7010   -0.1580 C   0  0
    1.8260    1.2890   -0.1230 C   0  0
    0.5290    3.3770   -0.1700 C   0  0
    0.6290    0.5330   -0.0160 C   0  0
   -0.6680    2.6270   -0.0640 C   0  0
   -0.6190    1.2090    0.0140 C   0  0
   -1.7560    0.5080    0.1150 O   0  0
   -1.6800   -0.8110    0.6410 C   0  0  2  0  0  0
   -1.3520   -1.7620   -0.4530 C   0  0
   -3.0060   -1.1660    1.3160 C   0  0  1  0  0  0
   -0.4750   -2.8340   -0.2150 C   0  0
   -1.9160   -1.5900   -1.7300 C   0  0
   -2.9410   -2.5000    1.9300 N   0  0
   -3.4510   -0.1150    2.3320 C   0  0
   -0.1600   -3.7340   -1.2460 C   0  0
   -1.6030   -2.4880   -2.7640 C   0  0
   -4.1020   -3.1540    2.2340 C   0  0
    0.6620   -4.7400   -1.0230 O   0  0
   -0.7270   -3.5610   -2.5220 C   0  0
   -5.1700   -2.6430    2.0000 O   0  0
   -4.0180   -4.5200    2.8630 C   0  0
    0.9490   -5.6210   -2.1000 C   0  0
   -5.2990   -4.9570    3.0680 F   0  0
   -3.3590   -4.4550    4.0650 F   0  0
   -3.3630   -5.3930    2.0330 F   0  0
    5.9260    6.0720   -2.0720 H   0  0
    3.1290    7.4080    0.9240 H   0  0
    5.0290    3.7810   -1.9020 H   0  0
    2.2190    5.1230    1.1050 H   0  0
    3.4320   -0.3220   -0.1210 H   0  0
    0.5060    4.4550   -0.2300 H   0  0
    0.6560   -0.5450    0.0430 H   0  0
   -1.6190    3.1390   -0.0410 H   0  0
   -0.8610   -0.8460    1.3570 H   0  0
   -3.7830   -1.3380    0.5720 H   0  0
   -0.0370   -2.9690    0.7660 H   0  0
   -2.5920   -0.7680   -1.9200 H   0  0
   -2.0570   -2.9260    2.1250 H   0  0
   -4.3980   -0.3790    2.8030 H   0  0
   -3.5760    0.8550    1.8540 H   0  0
   -2.7070   -0.0040    3.1210 H   0  0
   -2.0390   -2.3560   -3.7420 H   0  0
   -0.4900   -4.2500   -3.3180 H   0  0
    0.0240   -6.1170   -2.3890 H   0  0
    1.4550   -5.0530   -2.8790 H   0  0
    1.6390   -6.3850   -1.7400 H   0  0
  1  2  1  0
  2  3  2  0
  2  4  1  0
  3  5  1  0
  4  6  2  0
  5  7  2  0
  7  8  1  0
  8  9  1  0
  8 10  1  0
  9 11  2  0
 10 12  1  0
 10 13  2  0
 12 14  2  0
 13 15  1  0
 14 16  1  0
 16 17  1  0
 18 17  1  0
 18 19  1  0
 18 20  1  0
 19 21  2  0
 19 22  1  0
 20 23  1  0
 20 24  1  0
 21 25  1  0
 22 26  2  0
 23 27  1  0
 25 28  1  0
 25 29  2  0
 27 30  2  0
 27 31  1  0
 28 32  1  0
 31 33  1  0
 31 34  1  0
 31 35  1  0
  6  7  1  0
 11 12  1  0
 15 16  2  0
 26 29  1  0
  3 36  1  0
  4 37  1  0
  5 38  1  0
  6 39  1  0
 11 40  1  0
 13 41  1  0
 14 42  1  0
 15 43  1  0
 18 44  1  0
 20 45  1  0
 21 46  1  0
 22 47  1  0
 23 48  1  0
 24 49  1  0
 24 50  1  0
 24 51  1  0
 26 52  1  0
 29 53  1  0
 32 54  1  0
 32 55  1  0
 32 56  1  0
M  END
> <Name>
CHEMBL4072756

> <IC50 nM>
0.9

> <Molecule_ChEMBL_ID>
CHEMBL4072756

> <Smiles>
COc1cccc([C@@H](Oc2ccc3c(cnn3-c3ccc(F)cc3)c2)[C@H](C)NC(=O)C(F)(F)F)c1

$$$$
CHEMBL4061359
  SciTegic08162514323D

 58 62  0  0  1  0            999 V2000
    0.1840    1.8360    8.2720 F   0  0
    0.1930    0.9980    7.2380 C   0  0
    0.7050   -0.3030    7.3910 C   0  0
   -0.3070    1.4140    5.9920 C   0  0
    0.7150   -1.1870    6.2990 C   0  0
   -0.2970    0.5310    4.8990 C   0  0
    0.2150   -0.7730    5.0490 C   0  0
    0.2250   -1.6290    3.9940 N   0  0
   -0.1150   -2.9630    4.0430 N   0  0
    0.5640   -1.3360    2.7130 C   0  0
   -0.0290   -3.6310    2.8380 C   0  0
    0.3960   -2.5530    2.0800 C   0  0
    0.9940   -0.1680    2.0410 C   0  0
    0.6620   -2.6540    0.6900 C   0  0
    1.2620   -0.2660    0.6520 C   0  0
    1.0960   -1.5060   -0.0230 C   0  0
    1.3480   -1.5900   -1.3360 O   0  0
    1.3050   -0.3940   -2.1020 C   0  0  2  0  0  0
    0.0000    0.2620   -1.9120 C   0  0
    1.5610   -0.7210   -3.5720 C   0  0  1  0  0  0
   -1.1900   -0.5040   -1.9650 C   0  0
   -0.0650    1.6560   -1.6780 C   0  0
    1.5040    0.4920   -4.4000 N   0  0
    2.8770   -1.4690   -3.7890 C   0  0
   -2.4430    0.1250   -1.7790 C   0  0
   -1.3160    2.2890   -1.5080 C   0  0
    2.4340    1.4750   -4.2170 C   0  0
   -3.5760   -0.6050   -1.7990 O   0  0
   -2.5080    1.5310   -1.5740 C   0  0
    3.2990    1.3480   -3.3810 O   0  0
    2.3590    2.7110   -5.0720 C   0  0
   -4.8010   -0.0270   -1.3280 C   0  0
   -3.7050    2.1370   -1.4410 O   0  0
    3.3790    3.5410   -4.6840 F   0  0
    1.1580    3.3460   -4.8950 F   0  0
    2.5140    2.3890   -6.3970 F   0  0
   -4.8990    1.4320   -1.8050 C   0  0
    1.0900   -0.6250    8.3460 H   0  0
   -0.6990    2.4120    5.8690 H   0  0
    1.1130   -2.1840    6.4360 H   0  0
   -0.6860    0.8690    3.9470 H   0  0
   -0.2400   -4.6680    2.6190 H   0  0
    1.1170    0.7680    2.5650 H   0  0
    0.5370   -3.5940    0.1660 H   0  0
    1.5920    0.6060    0.1070 H   0  0
    2.0960    0.2660   -1.7500 H   0  0
    0.8300   -1.4410   -3.9410 H   0  0
   -1.1450   -1.5680   -2.1410 H   0  0
    0.8440    2.2420   -1.6290 H   0  0
    0.7890    0.6000   -5.0920 H   0  0
    3.0840   -1.5860   -4.8540 H   0  0
    3.7050   -0.9350   -3.3220 H   0  0
    2.8320   -2.4650   -3.3480 H   0  0
   -1.3610    3.3560   -1.3280 H   0  0
   -5.6350   -0.6310   -1.6870 H   0  0
   -4.8010   -0.0700   -0.2380 H   0  0
   -5.7560    1.9450   -1.3710 H   0  0
   -5.0000    1.4690   -2.8910 H   0  0
  1  2  1  0
  2  3  2  0
  2  4  1  0
  3  5  1  0
  4  6  2  0
  5  7  2  0
  7  8  1  0
  8  9  1  0
  8 10  1  0
  9 11  2  0
 10 12  1  0
 10 13  2  0
 12 14  2  0
 13 15  1  0
 14 16  1  0
 16 17  1  0
 18 17  1  0
 18 19  1  0
 18 20  1  0
 19 21  2  0
 19 22  1  0
 20 23  1  0
 20 24  1  0
 21 25  1  0
 22 26  2  0
 23 27  1  0
 25 28  1  0
 25 29  2  0
 27 30  2  0
 27 31  1  0
 28 32  1  0
 29 33  1  0
 31 34  1  0
 31 35  1  0
 31 36  1  0
 32 37  1  0
  6  7  1  0
 11 12  1  0
 15 16  2  0
 26 29  1  0
 33 37  1  0
  3 38  1  0
  4 39  1  0
  5 40  1  0
  6 41  1  0
 11 42  1  0
 13 43  1  0
 14 44  1  0
 15 45  1  0
 18 46  1  0
 20 47  1  0
 21 48  1  0
 22 49  1  0
 23 50  1  0
 24 51  1  0
 24 52  1  0
 24 53  1  0
 26 54  1  0
 32 55  1  0
 32 56  1  0
 37 57  1  0
 37 58  1  0
M  END
> <Name>
CHEMBL4061359

> <IC50 nM>
0.03

> <Molecule_ChEMBL_ID>
CHEMBL4061359

> <Smiles>
C[C@H](NC(=O)C(F)(F)F)[C@H](Oc1ccc2c(cnn2-c2ccc(F)cc2)c1)c1ccc2c(c1)OCCO2

$$$$
CHEMBL3666820
  SciTegic08162514323D

 75 80  0  0  1  0            999 V2000
   -0.4450   -0.5700    7.7930 F   0  0
    0.8590   -0.3730    8.1680 C   0  0
    1.4610   -1.5860    8.3850 F   0  0
    1.6000    0.4020    7.1130 C   0  0
    0.8980    0.4530    9.4550 C   0  0
    2.0940    1.4770    7.3610 O   0  0
    1.7050   -0.1330    5.8600 N   0  0
    2.4260    0.6110    4.8170 C   0  0  2  0  0  0
    1.7090    0.5000    3.4690 C   0  0  2  0  0  0
    3.8890    0.1760    4.7440 C   0  0
    2.5180    1.0740    2.4530 O   0  0
    0.4000    1.1720    3.4940 C   0  0
    2.1040    0.9670    1.1840 C   0  0
   -0.7830    0.4120    3.6540 C   0  0
    0.3260    2.5800    3.3560 C   0  0
    2.7520    1.7110    0.1640 C   0  0
    1.0180    0.1070    0.8630 C   0  0
   -2.0410    1.0590    3.6740 C   0  0
   -0.9300    3.2310    3.3910 C   0  0
    2.3050    1.5880   -1.1780 C   0  0
    0.5740   -0.0120   -0.4770 C   0  0
   -3.1720    0.3340    3.7970 O   0  0
   -2.1130    2.4750    3.5650 C   0  0
    1.2440    0.7480   -1.4630 C   0  0
    2.8870    2.2830   -2.2250 C   0  0
   -4.4380    0.9470    3.5240 C   0  0
   -3.3090    3.0960    3.6290 O   0  0
    1.1130    0.8950   -2.8070 N   0  0
    2.0740    1.7870   -3.2250 N   0  0
   -4.4550    2.3750    4.0980 C   0  0
    0.2050    0.2790   -3.6070 C   0  0
    0.6000   -0.2300   -4.8610 C   0  0
   -1.1330    0.1520   -3.1890 C   0  0
   -0.3440   -0.8650   -5.6910 C   0  0
   -2.0720   -0.4820   -4.0200 C   0  0
    0.0740   -1.4060   -7.0200 C   0  0
   -1.6800   -0.9920   -5.2680 C   0  0
    1.2170   -1.3090   -7.3980 O   0  0
   -0.8630   -2.0200   -7.8030 N   0  0
   -0.4670   -2.5590   -9.1170 C   0  0  1  0  0  0
    0.1970   -3.8980   -8.9830 C   0  0
   -1.6540   -2.9020  -10.0200 C   0  0
    1.3300   -4.0180   -8.5740 O   0  0
   -0.5700   -4.9120   -9.3670 O   0  0
   -1.8570   -4.3790   -9.6660 C   0  0
    0.3790   -0.0450   10.2740 H   0  0
    0.4280    1.4240    9.3050 H   0  0
    1.9280    0.6250    9.7700 H   0  0
    1.2950   -1.0210    5.6540 H   0  0
    2.5160    1.6540    5.1170 H   0  0
    1.5700   -0.5570    3.2380 H   0  0
    4.3630    0.2580    5.7210 H   0  0
    3.9670   -0.8540    4.3950 H   0  0
    4.4450    0.8070    4.0490 H   0  0
   -0.7300   -0.6620    3.7600 H   0  0
    1.2270    3.1620    3.2250 H   0  0
    3.5780    2.3610    0.4160 H   0  0
    0.5270   -0.4570    1.6430 H   0  0
   -0.9820    4.3050    3.2850 H   0  0
   -0.2520   -0.6600   -0.7320 H   0  0
    3.7030    2.9880   -2.2990 H   0  0
   -4.5780    0.9750    2.4430 H   0  0
   -5.2290    0.3300    3.9490 H   0  0
   -5.3540    2.9200    3.8130 H   0  0
   -4.4160    2.3440    5.1880 H   0  0
    1.6250   -0.1390   -5.1950 H   0  0
   -1.4530    0.5370   -2.2300 H   0  0
   -3.0980   -0.5820   -3.6970 H   0  0
   -2.4080   -1.4790   -5.9000 H   0  0
   -1.8070   -2.0960   -7.4810 H   0  0
    0.1930   -1.8540   -9.6000 H   0  0
   -1.3710   -2.8110  -11.0590 H   0  0
   -2.5330   -2.2950   -9.8560 H   0  0
   -2.4750   -4.4770   -8.7830 H   0  0
   -2.3130   -4.9470  -10.4650 H   0  0
  1  2  1  0
  2  3  1  0
  2  4  1  0
  2  5  1  0
  4  6  2  0
  4  7  1  0
  7  8  1  0
  8  9  1  0
  8 10  1  0
  9 11  1  0
  9 12  1  0
 11 13  1  0
 12 14  2  0
 12 15  1  0
 13 16  2  0
 13 17  1  0
 14 18  1  0
 15 19  2  0
 16 20  1  0
 17 21  2  0
 18 22  1  0
 18 23  2  0
 20 24  2  0
 20 25  1  0
 22 26  1  0
 23 27  1  0
 24 28  1  0
 25 29  2  0
 26 30  1  0
 28 31  1  0
 31 32  2  0
 31 33  1  0
 32 34  1  0
 33 35  2  0
 34 36  1  0
 34 37  2  0
 36 38  2  0
 36 39  1  0
 40 39  1  0
 40 41  1  0
 40 42  1  0
 41 43  2  0
 41 44  1  0
 42 45  1  0
 19 23  1  0
 21 24  1  0
 27 30  1  0
 28 29  1  0
 35 37  1  0
 44 45  1  0
  5 46  1  0
  5 47  1  0
  5 48  1  0
  7 49  1  0
  8 50  1  0
  9 51  1  0
 10 52  1  0
 10 53  1  0
 10 54  1  0
 14 55  1  0
 15 56  1  0
 16 57  1  0
 17 58  1  0
 19 59  1  0
 21 60  1  0
 25 61  1  0
 26 62  1  0
 26 63  1  0
 30 64  1  0
 30 65  1  0
 32 66  1  0
 33 67  1  0
 35 68  1  0
 37 69  1  0
 39 70  1  0
 40 71  1  0
 42 72  1  0
 42 73  1  0
 45 74  1  0
 45 75  1  0
M  END
> <Name>
CHEMBL3666820

> <IC50 nM>
0.92

> <Molecule_ChEMBL_ID>
CHEMBL3666820

> <Smiles>
C[C@H](NC(=O)C(C)(F)F)[C@H](Oc1ccc2c(cnn2-c2cccc(C(=O)N[C@@H]3CCOC3=O)c2)c1)c1ccc2c(c1)OCCO2

$$$$
CHEMBL1644761
  SciTegic08162514323D

 51 54  0  0  1  0            999 V2000
    0.1910   -1.5330    2.0840 Cl  0  0
   -0.0900   -0.7850    0.5430 C   0  0
   -0.3480   -1.6170   -0.5840 C   0  0
   -0.0760    0.6460    0.3850 C   0  0
   -0.3240   -3.0720   -0.4940 C   0  0
   -0.6410   -1.0550   -1.8400 C   0  0
   -0.4550    1.2090   -0.8870 C   0  0
    0.3110    1.5570    1.5270 C   0  0
    0.9000   -3.7850   -0.4450 C   0  0
   -1.5430   -3.8010   -0.4550 C   0  0
   -0.7070    0.3440   -1.9960 C   0  0
   -0.5860    2.5570   -1.0590 N   0  0
    0.6030    3.0020    1.0350 C   0  0  1  0  0  0
   -0.8300    1.5450    2.5610 C   0  0
    1.6110    1.0840    2.2030 C   0  0
    2.2290   -3.3730   -0.4630 N   0  0
    0.9200   -5.1540   -0.3610 C   0  0
   -1.5160   -5.2190   -0.3670 C   0  0
   -1.0490    0.8610   -3.3380 C   0  0
   -0.4550    3.5310    0.0490 C   0  0
    0.7420    3.8950    2.1310 O   0  0
    3.0290   -4.5390   -0.3890 C   0  0
   -0.2770   -5.9100   -0.3200 C   0  0
    2.1760   -5.6540   -0.3240 C   0  0
   -1.8320    3.7110    0.7050 C   0  0
   -0.0120    4.8810   -0.5350 C   0  0
   -0.8240   -1.6900   -2.6970 H   0  0
   -2.4960   -3.2910   -0.4900 H   0  0
   -0.7930    2.9360   -1.9630 H   0  0
    1.5700    3.0140    0.5270 H   0  0
   -1.8110    1.4940    2.0840 H   0  0
   -0.8050    2.4470    3.1740 H   0  0
   -0.7400    0.6870    3.2270 H   0  0
    2.1780    0.4060    1.5640 H   0  0
    1.3950    0.5600    3.1350 H   0  0
    2.2520    1.9340    2.4390 H   0  0
    2.5590   -2.4380   -0.5200 H   0  0
   -2.4410   -5.7740   -0.3380 H   0  0
   -1.1230    0.0310   -4.0390 H   0  0
   -1.9650    1.4470   -3.2790 H   0  0
   -0.2540    1.5210   -3.6860 H   0  0
    1.2360    4.6660    1.8110 H   0  0
    4.1110   -4.5270   -0.3850 H   0  0
   -0.2600   -6.9880   -0.2540 H   0  0
    2.4730   -6.6940   -0.2600 H   0  0
   -2.4340    4.4570    0.1880 H   0  0
   -1.7270    4.0270    1.7420 H   0  0
   -2.3870    2.7710    0.6970 H   0  0
   -0.6760    5.2170   -1.3320 H   0  0
    0.9940    4.8120   -0.9470 H   0  0
   -0.0040    5.6500    0.2360 H   0  0
  1  2  1  0
  2  3  2  0
  2  4  1  0
  3  5  1  0
  3  6  1  0
  4  7  2  0
  4  8  1  0
  5  9  2  0
  5 10  1  0
  6 11  2  0
  7 12  1  0
  8 13  1  0
  8 14  1  0
  8 15  1  0
  9 16  1  0
  9 17  1  0
 10 18  2  0
 11 19  1  0
 12 20  1  0
 13 21  1  0
 16 22  1  0
 17 23  2  0
 17 24  1  0
 20 25  1  0
 20 26  1  0
  7 11  1  0
 13 20  1  0
 18 23  1  0
 22 24  2  0
  6 27  1  0
 10 28  1  0
 12 29  1  0
 13 30  1  0
 14 31  1  0
 14 32  1  0
 14 33  1  0
 15 34  1  0
 15 35  1  0
 15 36  1  0
 16 37  1  0
 18 38  1  0
 19 39  1  0
 19 40  1  0
 19 41  1  0
 21 42  1  0
 22 43  1  0
 23 44  1  0
 24 45  1  0
 25 46  1  0
 25 47  1  0
 25 48  1  0
 26 49  1  0
 26 50  1  0
 26 51  1  0
M  END
> <Name>
CHEMBL1644761

> <IC50 nM>
37

> <Molecule_ChEMBL_ID>
CHEMBL1644761

> <Smiles>
Cc1cc(-c2cccc3cc[nH]c23)c(Cl)c2c1NC(C)(C)C(O)C2(C)C

$$$$
CHEMBL3421885
  SciTegic08162514323D

 51 53  0  0  1  0            999 V2000
   -5.5410   -0.8910    2.1040 O   0  0
   -4.3320   -0.8420    1.5310 C   0  0
   -4.1500   -0.1370    0.3200 C   0  0
   -3.2360   -1.4960    2.1350 C   0  0
   -2.8710   -0.0780   -0.2890 C   0  0
   -1.9590   -1.4410    1.5330 C   0  0
   -1.7580   -0.7250    0.3200 C   0  0
   -2.6990    0.6490   -1.5740 C   0  0
   -0.4160   -0.6250   -0.3480 C   0  0  1  0  0  0
   -1.3300    1.3400   -1.7520 C   0  0
   -0.2150    0.8500   -0.8030 C   0  0  2  0  0  0
    0.7700   -1.0370    0.5820 C   0  0
   -0.4430   -1.5570   -1.5720 C   0  0
    1.1800    1.1060   -1.4080 C   0  0
    2.1870   -0.7580    0.0220 C   0  0  2  0  0  0
   -0.5680   -3.0310   -1.1870 C   0  0
    2.3180    0.7250   -0.4370 C   0  0  1  0  0  0
    2.4040   -1.6390   -1.0700 O   0  0
    3.2560   -1.1430    1.0570 C   0  0
    3.5510    0.9300   -1.1090 O   0  0
    2.3300    1.6640    0.7460 C   0  0
    2.5920    2.9630    0.5250 C   0  0
    2.6000    3.9040    1.6990 C   0  0
   -6.2830   -0.4390    1.6820 H   0  0
   -4.9940    0.3580   -0.1390 H   0  0
   -3.3730   -2.0430    3.0570 H   0  0
   -1.1500   -1.9570    2.0250 H   0  0
   -2.8320   -0.0820   -2.3730 H   0  0
   -3.4940    1.3830   -1.7150 H   0  0
   -1.4450    2.4180   -1.6270 H   0  0
   -1.0200    1.2030   -2.7890 H   0  0
   -0.2850    1.4730    0.0920 H   0  0
    0.6840   -0.5000    1.5290 H   0  0
    0.6950   -2.0980    0.8380 H   0  0
   -1.2420   -1.2680   -2.2580 H   0  0
    0.4320   -1.3940   -2.1990 H   0  0
    1.2660    2.1560   -1.6930 H   0  0
    1.2730    0.5410   -2.3360 H   0  0
   -0.7870   -3.6410   -2.0640 H   0  0
    0.3530   -3.3890   -0.7280 H   0  0
   -1.3770   -3.1760   -0.4710 H   0  0
    2.3280   -2.5430   -0.7300 H   0  0
    3.1330   -2.1680    1.4060 H   0  0
    3.2030   -0.4860    1.9240 H   0  0
    4.2560   -1.0530    0.6310 H   0  0
    4.2600    0.7600   -0.4710 H   0  0
    2.1410    1.4000    1.7750 H   0  0
    2.8030    3.4010   -0.4390 H   0  0
    2.9340    4.9100    1.4490 H   0  0
    3.2600    3.5200    2.4790 H   0  0
    1.5980    3.9810    2.1210 H   0  0
  1  2  1  0
  2  3  2  0
  2  4  1  0
  3  5  1  0
  4  6  2  0
  5  7  2  0
  5  8  1  0
  7  9  1  0
  8 10  1  0
  9 11  1  0
  9 12  1  0
  9 13  1  0
 11 14  1  0
 12 15  1  0
 13 16  1  0
 14 17  1  0
 15 18  1  0
 15 19  1  0
 17 20  1  0
 17 21  1  0
 21 22  2  0
 22 23  1  0
  6  7  1  0
 10 11  1  0
 15 17  1  0
  1 24  1  0
  3 25  1  0
  4 26  1  0
  6 27  1  0
  8 28  1  0
  8 29  1  0
 10 30  1  0
 10 31  1  0
 11 32  1  0
 12 33  1  0
 12 34  1  0
 13 35  1  0
 13 36  1  0
 14 37  1  0
 14 38  1  0
 16 39  1  0
 16 40  1  0
 16 41  1  0
 18 42  1  0
 19 43  1  0
 19 44  1  0
 19 45  1  0
 20 46  1  0
 21 47  1  0
 22 48  1  0
 23 49  1  0
 23 50  1  0
 23 51  1  0
M  END
> <Name>
CHEMBL3421885

> <IC50 nM>
2.1

> <Molecule_ChEMBL_ID>
CHEMBL3421885

> <Smiles>
C/C=C/[C@]1(O)C[C@H]2CCc3cc(O)ccc3[C@]2(CC)C[C@@]1(C)O

$$$$
CHEMBL470784
  SciTegic08162514323D

 51 54  0  0  1  0            999 V2000
   -4.0610   -4.1270    1.2930 O   0  0
   -3.1930   -3.2770    0.7280 C   0  0
   -3.5800   -1.9470    0.4590 C   0  0
   -1.8890   -3.7090    0.4040 C   0  0
   -2.6700   -1.0410   -0.1410 C   0  0
   -0.9730   -2.8170   -0.1950 C   0  0
   -1.3480   -1.4730   -0.4810 C   0  0
   -3.1070    0.3590   -0.4100 C   0  0
   -0.4320   -0.4710   -1.1190 C   0  0  1  0  0  0
   -1.9820    1.4260   -0.4040 C   0  0
   -0.5680    0.8320   -0.2740 C   0  0  2  0  0  0
    1.0800   -0.8610   -1.2380 C   0  0
   -0.9360   -0.2340   -2.5550 C   0  0
    0.5630    1.8320   -0.5590 C   0  0
    1.9360   -0.2990   -0.0900 C   0  0  2  0  0  0
   -0.8850   -1.5000   -3.4120 C   0  0
    1.9450    1.2690   -0.1040 C   0  0  1  0  0  0
    3.2400   -0.8540   -0.1510 O   0  0
    2.9000    1.7580   -1.0310 O   0  0
    2.3240    1.8010    1.2400 C   0  0
    3.6780    1.8550    1.6170 C   0  0
    1.3300    2.2480    2.1290 C   0  0
    4.0350    2.3570    2.8830 C   0  0
    1.6880    2.7480    3.3920 C   0  0
    3.0410    2.8030    3.7690 C   0  0
   -4.9490   -3.8200    1.5100 H   0  0
   -4.5800   -1.6250    0.7090 H   0  0
   -1.5900   -4.7270    0.6130 H   0  0
    0.0080   -3.2030   -0.4180 H   0  0
   -3.8770    0.6560    0.3050 H   0  0
   -3.5960    0.3650   -1.3870 H   0  0
   -2.0490    2.0160   -1.3190 H   0  0
   -2.1470    2.1330    0.4100 H   0  0
   -0.4590    0.5740    0.7830 H   0  0
    1.4840   -0.4280   -2.1560 H   0  0
    1.2420   -1.9280   -1.3850 H   0  0
   -1.9430    0.1840   -2.5470 H   0  0
   -0.3830    0.5740   -3.0310 H   0  0
    0.3460    2.7930   -0.0860 H   0  0
    0.5490    2.0350   -1.6310 H   0  0
    1.5080   -0.6700    0.8440 H   0  0
   -1.2620   -1.3010   -4.4160 H   0  0
    0.1350   -1.8770   -3.4830 H   0  0
   -1.5020   -2.2870   -2.9770 H   0  0
    3.1540   -1.8050    0.0190 H   0  0
    3.7230    1.2660   -0.8790 H   0  0
    4.4470    1.5160    0.9410 H   0  0
    0.2870    2.2090    1.8460 H   0  0
    5.0760    2.3980    3.1720 H   0  0
    0.9240    3.0900    4.0740 H   0  0
    3.3160    3.1860    4.7400 H   0  0
  1  2  1  0
  2  3  2  0
  2  4  1  0
  3  5  1  0
  4  6  2  0
  5  7  2  0
  5  8  1  0
  7  9  1  0
  8 10  1  0
  9 11  1  0
  9 12  1  0
  9 13  1  0
 11 14  1  0
 12 15  1  0
 13 16  1  0
 14 17  1  0
 15 18  1  0
 17 19  1  0
 17 20  1  0
 20 21  2  0
 20 22  1  0
 21 23  1  0
 22 24  2  0
 23 25  2  0
  6  7  1  0
 10 11  1  0
 15 17  1  0
 24 25  1  0
  1 26  1  0
  3 27  1  0
  4 28  1  0
  6 29  1  0
  8 30  1  0
  8 31  1  0
 10 32  1  0
 10 33  1  0
 11 34  1  0
 12 35  1  0
 12 36  1  0
 13 37  1  0
 13 38  1  0
 14 39  1  0
 14 40  1  0
 15 41  1  0
 16 42  1  0
 16 43  1  0
 16 44  1  0
 18 45  1  0
 19 46  1  0
 21 47  1  0
 22 48  1  0
 23 49  1  0
 24 50  1  0
 25 51  1  0
M  END
> <Name>
CHEMBL470784

> <IC50 nM>
3.8

> <Molecule_ChEMBL_ID>
CHEMBL470784

> <Smiles>
CC[C@@]12C[C@@H](O)[C@](O)(c3ccccc3)C[C@H]1CCc1cc(O)ccc12

$$$$
CHEMBL443847
  SciTegic08162514323D

 50 53  0  0  1  0            999 V2000
   -0.8590    2.6740   -0.1950 Cl  0  0
   -0.2830    1.1190    0.3130 C   0  0
   -1.2010    0.0330    0.4080 C   0  0
    1.1020    0.9060    0.6250 C   0  0
   -2.6310    0.2030    0.1600 C   0  0
   -0.7520   -1.2600    0.7480 C   0  0
    1.5630   -0.4320    0.8830 C   0  0
    2.0680    2.0590    0.6700 C   0  0  2  0  0  0
   -3.2560   -0.3870   -0.9710 C   0  0
   -3.4220    0.9690    1.0570 C   0  0
    0.6190   -1.5000    0.9710 C   0  0
    2.8910   -0.6990    1.0370 N   0  0
    3.4470    1.6800    1.2460 C   0  0
    1.5530    3.2480    1.4960 C   0  0
   -2.7700   -1.1720   -2.0080 N   0  0
   -4.6000   -0.2250   -1.2010 C   0  0
   -4.8130    1.1310    0.8130 C   0  0
    1.0270   -2.8830    1.2850 C   0  0
    3.9400    0.3110    0.7620 C   0  0
   -3.8650   -1.4690   -2.8560 C   0  0
   -5.4140    0.5330   -0.3260 C   0  0
   -5.0140   -0.8550   -2.3220 C   0  0
    5.2230   -0.0720    1.5080 C   0  0
    4.2210    0.3360   -0.7440 C   0  0
   -3.7420   -2.3090   -4.1070 C   0  0
   -1.4510   -2.0780    0.8360 H   0  0
    2.2150    2.3930   -0.3590 H   0  0
   -2.9800    1.4300    1.9300 H   0  0
    3.1950   -1.6110    1.3180 H   0  0
    3.3890    1.6660    2.3360 H   0  0
    4.1780    2.4510    0.9980 H   0  0
    1.1330    4.0160    0.8460 H   0  0
    0.7910    2.9240    2.2030 H   0  0
    2.3630    3.7030    2.0640 H   0  0
   -1.8300   -1.4730   -2.1350 H   0  0
   -5.4140    1.7150    1.4940 H   0  0
    1.5410   -2.9920    2.2400 H   0  0
    1.6910   -3.2540    0.5060 H   0  0
    0.1470   -3.5250    1.3070 H   0  0
   -6.4730    0.6600   -0.5120 H   0  0
   -6.0140   -0.8890   -2.7320 H   0  0
    5.0670   -0.1250    2.5840 H   0  0
    6.0100    0.6580    1.3200 H   0  0
    5.5860   -1.0450    1.1760 H   0  0
    3.3240    0.5650   -1.3200 H   0  0
    4.5960   -0.6290   -1.0820 H   0  0
    4.9710    1.0880   -0.9840 H   0  0
   -4.6780   -2.4430   -4.6500 H   0  0
   -3.3630   -3.2970   -3.8460 H   0  0
   -3.0250   -1.8480   -4.7870 H   0  0
  1  2  1  0
  2  3  2  0
  2  4  1  0
  3  5  1  0
  3  6  1  0
  4  7  2  0
  4  8  1  0
  5  9  2  0
  5 10  1  0
  6 11  2  0
  7 12  1  0
  8 13  1  0
  8 14  1  0
  9 15  1  0
  9 16  1  0
 10 17  2  0
 11 18  1  0
 12 19  1  0
 15 20  1  0
 16 21  2  0
 16 22  1  0
 19 23  1  0
 19 24  1  0
 20 25  1  0
  7 11  1  0
 13 19  1  0
 17 21  1  0
 20 22  2  0
  6 26  1  0
  8 27  1  0
 10 28  1  0
 12 29  1  0
 13 30  1  0
 13 31  1  0
 14 32  1  0
 14 33  1  0
 14 34  1  0
 15 35  1  0
 17 36  1  0
 18 37  1  0
 18 38  1  0
 18 39  1  0
 21 40  1  0
 22 41  1  0
 23 42  1  0
 23 43  1  0
 23 44  1  0
 24 45  1  0
 24 46  1  0
 24 47  1  0
 25 48  1  0
 25 49  1  0
 25 50  1  0
M  END
> <Name>
CHEMBL443847

> <IC50 nM>
1000

> <Molecule_ChEMBL_ID>
CHEMBL443847

> <Smiles>
Cc1cc2cccc(-c3cc(C)c4c(c3Cl)C(C)CC(C)(C)N4)c2[nH]1

$$$$
CHEMBL71405
  SciTegic08162514323D

 58 61  0  0  0  0            999 V2000
   -3.0550    1.5200   -3.5140 S   0  0
   -2.1000    1.8030   -4.5720 O   0  0
   -3.7850    0.2810   -3.7190 O   0  0
   -2.2210    1.3710   -2.1330 N   0  0
   -4.2230    2.8710   -3.4140 C   0  0
   -1.2710    0.3830   -2.0060 C   0  0
   -0.5180    0.2030   -0.8140 C   0  0
   -1.0590   -0.4670   -3.1070 C   0  0
    0.4470   -0.8380   -0.7560 C   0  0
   -0.7300    1.0860    0.3400 C   0  0
   -0.1030   -1.4920   -3.0390 C   0  0
    1.2130   -1.0680    0.3650 N   0  0
    0.6450   -1.6780   -1.8690 C   0  0
   -1.9360    1.0160    1.0660 C   0  0
    0.2680    2.0020    0.7250 C   0  0
    0.5860   -1.3500    1.6640 C   0  0
    2.6800   -1.0370    0.2740 C   0  0
   -2.1390    1.8610    2.1720 C   0  0
    0.0610    2.8440    1.8300 C   0  0
   -0.1110   -2.6620    1.6640 C   0  0
    3.2070    0.3420    0.4470 C   0  0
   -1.1430    2.7730    2.5530 C   0  0
   -1.5160   -2.7150    1.6640 C   0  0
    0.6370   -3.8560    1.6640 C   0  0
    3.6090    1.0900   -0.6740 C   0  0
    3.3070    0.9000    1.7360 C   0  0
   -2.1740   -3.9570    1.6640 C   0  0
   -0.0230   -5.0960    1.6640 C   0  0
    4.1090    2.3930   -0.5080 C   0  0
    3.8070    2.2030    1.9000 C   0  0
   -1.4280   -5.1490    1.6640 C   0  0
    4.2090    2.9490    0.7790 C   0  0
   -2.3960    1.9960   -1.3730 H   0  0
   -4.7420    2.9730   -4.3670 H   0  0
   -4.9000    2.7030   -2.5780 H   0  0
   -3.6860    3.8010   -3.2270 H   0  0
   -1.6230   -0.3480   -4.0230 H   0  0
    0.0530   -2.1410   -3.8870 H   0  0
    1.3750   -2.4770   -1.8420 H   0  0
   -2.7130    0.3200    0.7870 H   0  0
    1.1970    2.0680    0.1780 H   0  0
   -0.1290   -0.5590    1.8970 H   0  0
    1.3520   -1.3440    2.4400 H   0  0
    2.9860   -1.4220   -0.6990 H   0  0
    3.1000   -1.6880    1.0390 H   0  0
   -3.0640    1.8070    2.7290 H   0  0
    0.8260    3.5470    2.1230 H   0  0
   -1.3010    3.4220    3.4020 H   0  0
   -2.0960   -1.8030    1.6640 H   0  0
    1.7150   -3.8220    1.6640 H   0  0
    3.5370    0.6680   -1.6640 H   0  0
    3.0000    0.3300    2.6020 H   0  0
   -3.2540   -3.9960    1.6640 H   0  0
    0.5510   -6.0120    1.6640 H   0  0
    4.4180    2.9670   -1.3690 H   0  0
    3.8830    2.6310    2.8910 H   0  0
   -1.9340   -6.1020    1.6640 H   0  0
    4.5940    3.9510    0.9080 H   0  0
  1  2  2  0
  1  3  2  0
  1  4  1  0
  1  5  1  0
  4  6  1  0
  6  7  2  0
  6  8  1  0
  7  9  1  0
  7 10  1  0
  8 11  2  0
  9 12  1  0
  9 13  2  0
 10 14  2  0
 10 15  1  0
 12 16  1  0
 12 17  1  0
 14 18  1  0
 15 19  2  0
 16 20  1  0
 17 21  1  0
 18 22  2  0
 20 23  2  0
 20 24  1  0
 21 25  2  0
 21 26  1  0
 23 27  1  0
 24 28  2  0
 25 29  1  0
 26 30  2  0
 27 31  2  0
 29 32  2  0
 11 13  1  0
 19 22  1  0
 28 31  1  0
 30 32  1  0
  4 33  1  0
  5 34  1  0
  5 35  1  0
  5 36  1  0
  8 37  1  0
 11 38  1  0
 13 39  1  0
 14 40  1  0
 15 41  1  0
 16 42  1  0
 16 43  1  0
 17 44  1  0
 17 45  1  0
 18 46  1  0
 19 47  1  0
 22 48  1  0
 23 49  1  0
 24 50  1  0
 25 51  1  0
 26 52  1  0
 27 53  1  0
 28 54  1  0
 29 55  1  0
 30 56  1  0
 31 57  1  0
 32 58  1  0
M  END
> <Name>
CHEMBL71405

> <IC50 nM>
450

> <Molecule_ChEMBL_ID>
CHEMBL71405

> <Smiles>
CS(=O)(=O)Nc1cccc(N(Cc2ccccc2)Cc2ccccc2)c1-c1ccccc1

$$$$
CHEMBL1684344
  SciTegic08162514323D

 65 69  0  0  1  0            999 V2000
    0.9750   -8.2600    1.8110 Cl  0  0
    0.3160   -6.7870    1.2210 C   0  0
   -0.5140   -5.9240    1.8550 C   0  0
    0.5450   -6.2380   -0.0530 C   0  0
   -0.8380   -4.8460    1.0660 C   0  0
   -1.0270   -6.0490    3.1720 C   0  0
   -0.1780   -5.0240   -0.1430 N   0  0
   -1.6970   -3.8200    1.5390 C   0  0
   -1.8910   -5.0350    3.6660 C   0  0
   -2.0390   -2.6780    0.7030 C   0  0
   -2.2270   -3.9220    2.8520 C   0  0
   -1.6820   -1.3670    1.1130 C   0  0
   -2.7270   -2.8790   -0.5200 C   0  0
   -1.0370   -1.1760    2.2660 F   0  0
   -2.0120   -0.2480    0.2990 C   0  0
   -3.0740   -4.1020   -0.9240 F   0  0
   -3.0570   -1.7700   -1.3280 C   0  0
   -2.7070   -0.4510   -0.9360 C   0  0
   -1.6350    1.1250    0.7420 C   0  0  1  0  0  0
   -3.0370    0.5920   -1.7440 N   0  0
   -1.5220    2.0920   -0.4530 C   0  0  2  0  0  0
   -2.6230    1.6330    1.7990 C   0  0
   -2.7440    2.0100   -1.3950 C   0  0
   -0.3380    1.7770   -1.1820 O   0  0
   -2.4690    2.7970   -2.6820 C   0  0
   -3.9840    2.6050   -0.7230 C   0  0
    0.7640    2.2030   -0.5680 C   0  0
    0.7580    2.8570    0.4470 O   0  0
    1.9430    1.8550   -1.1600 N   0  0
    3.2150    2.2870   -0.5470 C   0  0
    4.3830    1.3960   -1.0180 C   0  0
    3.4920    3.7730   -0.8460 C   0  0
    5.7230    1.8570   -0.4260 C   0  0
    4.8340    4.2290   -0.2540 C   0  0
    5.9920    3.3380   -0.7270 C   0  0
    1.1540   -6.6370   -0.8540 H   0  0
   -0.7770   -6.8910    3.7990 H   0  0
   -0.2050   -4.4180   -0.9300 H   0  0
   -2.2930   -5.1130    4.6640 H   0  0
   -2.8870   -3.1600    3.2460 H   0  0
   -3.5820   -1.9430   -2.2580 H   0  0
   -0.6520    1.0860    1.2150 H   0  0
   -3.5040    0.4180   -2.6130 H   0  0
   -1.3970    3.1130   -0.0900 H   0  0
   -2.3460    1.2750    2.7910 H   0  0
   -2.6490    2.7230    1.8090 H   0  0
   -3.6310    1.2770    1.5860 H   0  0
   -1.6020    2.4100   -3.2170 H   0  0
   -2.2830    3.8460   -2.4590 H   0  0
   -3.3260    2.7440   -3.3560 H   0  0
   -4.5020    1.8750   -0.1020 H   0  0
   -4.6920    2.9670   -1.4710 H   0  0
   -3.7130    3.4490   -0.0880 H   0  0
    1.9390    1.3120   -2.0000 H   0  0
    3.1050    2.1660    0.5310 H   0  0
    4.2030    0.3550   -0.7400 H   0  0
    4.4510    1.4160   -2.1070 H   0  0
    2.6910    4.3970   -0.4470 H   0  0
    3.5080    3.9410   -1.9240 H   0  0
    6.5330    1.2460   -0.8220 H   0  0
    5.7150    1.7030    0.6520 H   0  0
    4.7770    4.2010    0.8360 H   0  0
    5.0270    5.2660   -0.5270 H   0  0
    6.9220    3.6520   -0.2500 H   0  0
    6.1330    3.4710   -1.7990 H   0  0
  1  2  1  0
  2  3  1  0
  2  4  2  0
  3  5  1  0
  3  6  2  0
  4  7  1  0
  5  8  2  0
  6  9  1  0
  8 10  1  0
  8 11  1  0
 10 12  2  0
 10 13  1  0
 12 14  1  0
 12 15  1  0
 13 16  1  0
 13 17  2  0
 15 18  2  0
 15 19  1  0
 18 20  1  0
 19 21  1  0
 19 22  1  0
 20 23  1  0
 21 24  1  0
 23 25  1  0
 23 26  1  0
 24 27  1  0
 27 28  2  0
 27 29  1  0
 29 30  1  0
 30 31  1  0
 30 32  1  0
 31 33  1  0
 32 34  1  0
 33 35  1  0
  5  7  1  0
  9 11  2  0
 17 18  1  0
 21 23  1  0
 34 35  1  0
  4 36  1  0
  6 37  1  0
  7 38  1  0
  9 39  1  0
 11 40  1  0
 17 41  1  0
 19 42  1  0
 20 43  1  0
 21 44  1  0
 22 45  1  0
 22 46  1  0
 22 47  1  0
 25 48  1  0
 25 49  1  0
 25 50  1  0
 26 51  1  0
 26 52  1  0
 26 53  1  0
 29 54  1  0
 30 55  1  0
 31 56  1  0
 31 57  1  0
 32 58  1  0
 32 59  1  0
 33 60  1  0
 33 61  1  0
 34 62  1  0
 34 63  1  0
 35 64  1  0
 35 65  1  0
M  END
> <Name>
CHEMBL1684344

> <IC50 nM>
23

> <Molecule_ChEMBL_ID>
CHEMBL1684344

> <Smiles>
C[C@H]1c2c(cc(F)c(-c3cccc4c(Cl)c[nH]c34)c2F)NC(C)(C)[C@@H]1OC(=O)NC1CCCCC1

$$$$
CHEMBL1684357
  SciTegic08162514323D

 64 68  0  0  1  0            999 V2000
    1.5080    1.0190    1.7150 F   0  0
    1.5740   -0.3130    1.7270 C   0  0
    2.8320   -0.9670    1.6860 C   0  0
    0.3730   -1.0740    1.7830 C   0  0
    2.9000   -2.3830    1.7010 C   0  0
    4.0570   -0.1840    1.6250 C   0  0
    0.4410   -2.5040    1.7990 C   0  0
   -0.9430   -0.3770    1.8300 C   0  0  1  0  0  0
    4.0720   -3.0180    1.6640 F   0  0
    1.7110   -3.1410    1.7580 C   0  0
    4.9260   -0.2600    0.5040 C   0  0
    4.4020    0.6780    2.7010 C   0  0
   -0.6820   -3.2700    1.8500 N   0  0
   -2.0780   -1.2760    1.3030 C   0  0  2  0  0  0
   -1.2270    0.1310    3.2500 C   0  0
    4.8690   -0.9900   -0.6760 N   0  0
    6.0800    0.4780    0.4510 C   0  0
    5.6000    1.4410    2.6390 C   0  0
   -2.0510   -2.6880    1.9320 C   0  0
   -1.9510   -1.3850   -0.1110 O   0  0
    6.0250   -0.6600   -1.4280 C   0  0
    6.4530    1.3460    1.5080 C   0  0
    6.7740    0.2730   -0.6890 C   0  0
   -3.0330   -3.6100    1.1970 C   0  0
   -2.4610   -2.6290    3.4080 C   0  0
   -2.3570   -0.2870   -0.7440 C   0  0
   -2.8440    0.6680   -0.1860 O   0  0
   -2.1930   -0.2870   -2.1000 N   0  0
   -2.5840    0.8010   -2.8360 C   0  0
   -3.2250    0.6230   -4.0760 C   0  0
   -2.3440    2.1030   -2.3540 C   0  0
   -3.6230    1.7380   -4.8320 C   0  0
   -2.7420    3.2190   -3.1090 C   0  0
   -3.3830    3.0390   -4.3480 C   0  0
   -3.8070    4.2250   -5.1500 C   0  0
   -4.3580    4.0880   -6.2170 O   0  0
   -3.5270    5.5940   -4.5920 C   0  0
   -0.9020    0.4980    1.1800 H   0  0
    1.7830   -4.2210    1.7700 H   0  0
    3.7660    0.7640    3.5700 H   0  0
   -0.6060   -4.2680    1.8380 H   0  0
   -3.0430   -0.8010    1.4900 H   0  0
   -0.8360    1.1390    3.3830 H   0  0
   -2.2990    0.1330    3.4490 H   0  0
   -0.7520   -0.5120    3.9900 H   0  0
    4.1560   -1.6250   -0.9490 H   0  0
    5.8630    2.0960    3.4570 H   0  0
    6.2520   -1.0760   -2.4000 H   0  0
    7.3630    1.9280    1.4630 H   0  0
    7.7130    0.7260   -0.9840 H   0  0
   -2.7680   -3.7330    0.1480 H   0  0
   -4.0450   -3.2070    1.2420 H   0  0
   -3.0470   -4.6000    1.6540 H   0  0
   -1.6390   -2.2990    4.0450 H   0  0
   -2.7790   -3.6120    3.7580 H   0  0
   -3.2910   -1.9380    3.5510 H   0  0
   -1.7910   -1.0800   -2.5550 H   0  0
   -3.4160   -0.3690   -4.4650 H   0  0
   -1.8540    2.2620   -1.4020 H   0  0
   -4.1130    1.5920   -5.7830 H   0  0
   -2.5550    4.2130   -2.7310 H   0  0
   -3.8670    6.4040   -5.2360 H   0  0
   -2.4570    5.7190   -4.4360 H   0  0
   -4.0220    5.7070   -3.6270 H   0  0
  1  2  1  0
  2  3  2  0
  2  4  1  0
  3  5  1  0
  3  6  1  0
  4  7  2  0
  4  8  1  0
  5  9  1  0
  5 10  2  0
  6 11  2  0
  6 12  1  0
  7 13  1  0
  8 14  1  0
  8 15  1  0
 11 16  1  0
 11 17  1  0
 12 18  2  0
 13 19  1  0
 14 20  1  0
 16 21  1  0
 17 22  2  0
 17 23  1  0
 19 24  1  0
 19 25  1  0
 20 26  1  0
 26 27  2  0
 26 28  1  0
 28 29  1  0
 29 30  2  0
 29 31  1  0
 30 32  1  0
 31 33  2  0
 32 34  2  0
 34 35  1  0
 35 36  2  0
 35 37  1  0
  7 10  1  0
 14 19  1  0
 18 22  1  0
 21 23  2  0
 33 34  1  0
  8 38  1  0
 10 39  1  0
 12 40  1  0
 13 41  1  0
 14 42  1  0
 15 43  1  0
 15 44  1  0
 15 45  1  0
 16 46  1  0
 18 47  1  0
 21 48  1  0
 22 49  1  0
 23 50  1  0
 24 51  1  0
 24 52  1  0
 24 53  1  0
 25 54  1  0
 25 55  1  0
 25 56  1  0
 28 57  1  0
 30 58  1  0
 31 59  1  0
 32 60  1  0
 33 61  1  0
 37 62  1  0
 37 63  1  0
 37 64  1  0
M  END
> <Name>
CHEMBL1684357

> <IC50 nM>
23

> <Molecule_ChEMBL_ID>
CHEMBL1684357

> <Smiles>
CC(=O)c1ccc(NC(=O)O[C@@H]2[C@@H](C)c3c(cc(F)c(-c4cccc5cc[nH]c45)c3F)NC2(C)C)cc1

$$$$
CHEMBL308204
  SciTegic08162514323D

 52 54  0  0  0  0            999 V2000
   -1.8260    1.8240   -3.1080 S   0  0
   -2.3480    3.1000   -2.6450 O   0  0
   -0.3750    1.7640   -3.1000 O   0  0
   -2.3650    0.6820   -2.0940 N   0  0
   -2.4080    1.5310   -4.7720 C   0  0
   -1.4800   -0.1780   -1.4920 C   0  0
   -0.6460    0.2520   -0.4320 C   0  0
   -1.4080   -1.5080   -1.9470 C   0  0
    0.2540   -0.6640    0.1640 C   0  0
   -0.7190    1.6640    0.0590 C   0  0
   -0.5120   -2.4100   -1.3540 C   0  0
    1.0780   -0.2850    1.1950 N   0  0
    0.3160   -1.9900   -0.3010 C   0  0
    0.5250    0.1190    2.4960 C   0  0
    2.5350   -0.2790    1.0060 C   0  0
   -0.3690   -0.9260    3.0590 C   0  0
    2.9390    0.6130   -0.1130 C   0  0
   -1.7680   -0.7620    3.0020 C   0  0
    0.1780   -2.0820    3.6480 C   0  0
    3.0200    0.1070   -1.4220 C   0  0
    3.2420    1.9630    0.1390 C   0  0
   -2.6070   -1.7540    3.5350 C   0  0
   -0.6700   -3.0680    4.1820 C   0  0
    3.4000    0.9510   -2.4810 C   0  0
    3.6230    2.8070   -0.9200 C   0  0
   -4.0330   -1.5820    3.4730 C   0  0
   -2.0630   -2.9100    4.1270 C   0  0
    3.7030    2.2990   -2.2290 C   0  0
   -5.1840   -1.4430    3.4240 N   0  0
   -3.3460    0.6000   -1.9080 H   0  0
   -2.0740    2.2710   -5.5000 H   0  0
   -3.4980    1.5230   -4.7790 H   0  0
   -2.0640    0.5550   -5.1090 H   0  0
   -2.0350   -1.8540   -2.7580 H   0  0
   -0.9240    2.3300   -0.7810 H   0  0
   -1.4670    1.7380    0.8480 H   0  0
    0.2440    1.9510    0.4820 H   0  0
   -0.4610   -3.4300   -1.7070 H   0  0
    0.9980   -2.7030    0.1410 H   0  0
   -0.0310    1.0490    2.3770 H   0  0
    1.3440    0.3090    3.1890 H   0  0
    2.8750   -1.2950    0.8030 H   0  0
    3.0140    0.0550    1.9280 H   0  0
   -2.1880    0.1310    2.5450 H   0  0
    1.2480   -2.2170    3.6970 H   0  0
    2.7870   -0.9300   -1.6210 H   0  0
    3.1820    2.3590    1.1410 H   0  0
   -0.2500   -3.9530    4.6330 H   0  0
    3.4610    0.5610   -3.4860 H   0  0
    3.8560    3.8440   -0.7290 H   0  0
   -2.6990   -3.6740    4.5390 H   0  0
    3.9960    2.9470   -3.0430 H   0  0
  1  2  2  0
  1  3  2  0
  1  4  1  0
  1  5  1  0
  4  6  1  0
  6  7  2  0
  6  8  1  0
  7  9  1  0
  7 10  1  0
  8 11  2  0
  9 12  1  0
  9 13  2  0
 12 14  1  0
 12 15  1  0
 14 16  1  0
 15 17  1  0
 16 18  2  0
 16 19  1  0
 17 20  2  0
 17 21  1  0
 18 22  1  0
 19 23  2  0
 20 24  1  0
 21 25  2  0
 22 26  1  0
 22 27  2  0
 24 28  2  0
 26 29  3  0
 11 13  1  0
 23 27  1  0
 25 28  1  0
  4 30  1  0
  5 31  1  0
  5 32  1  0
  5 33  1  0
  8 34  1  0
 10 35  1  0
 10 36  1  0
 10 37  1  0
 11 38  1  0
 13 39  1  0
 14 40  1  0
 14 41  1  0
 15 42  1  0
 15 43  1  0
 18 44  1  0
 19 45  1  0
 20 46  1  0
 21 47  1  0
 23 48  1  0
 24 49  1  0
 25 50  1  0
 27 51  1  0
 28 52  1  0
M  END
> <Name>
CHEMBL308204

> <IC50 nM>
570

> <Molecule_ChEMBL_ID>
CHEMBL308204

> <Smiles>
Cc1c(NS(C)(=O)=O)cccc1N(Cc1ccccc1)Cc1cccc(C#N)c1

$$$$
CHEMBL134277
  SciTegic08162514323D

 48 52  0  0  0  0            999 V2000
    3.9650    4.2620   -1.4320 S   0  0
    2.6410    3.6370   -0.5720 C   0  0
    4.1620    2.8360   -2.3340 C   0  0
    2.3320    2.3240   -0.9670 C   0  0
    3.2090    1.8710   -1.9770 C   0  0
    1.2460    1.5310   -0.4040 C   0  0
    1.3110    0.1840   -0.3240 C   0  0
    2.4830   -0.3590   -0.6840 O   0  0
    0.1740   -0.6450    0.2050 C   0  0
    2.8030   -1.6230   -0.3320 C   0  0
   -1.2010   -0.2330    0.2400 C   0  0
    0.5350   -1.9240    0.7170 C   0  0
    1.8890   -2.4550    0.3950 C   0  0
    4.0800   -2.1170   -0.6910 C   0  0
   -2.0940   -0.9000    1.1330 C   0  0
   -1.7700    0.8380   -0.6500 C   0  0
   -0.3980   -2.6390    1.5120 C   0  0
    2.3050   -3.7640    0.7730 C   0  0
    4.4730   -3.4180   -0.3160 C   0  0
   -3.3340   -0.4060    1.3750 N   0  0
   -1.6820   -2.1060    1.7580 C   0  0
   -2.9730    1.3690   -0.3550 C   0  0
   -1.0840    1.3140   -1.9080 C   0  0
    3.5900   -4.2380    0.4200 C   0  0
   -3.7830    0.9140    0.8440 C   0  0
    3.9670   -5.4630    0.7810 F   0  0
   -5.2500    0.8010    0.4220 C   0  0
   -3.6500    1.9630    1.9510 C   0  0
    2.1070    4.1950    0.1880 H   0  0
    4.9320    2.7030   -3.0840 H   0  0
    3.1560    0.8890   -2.4300 H   0  0
    0.3890    2.0740   -0.0410 H   0  0
    4.7600   -1.4940   -1.2540 H   0  0
   -0.1680   -3.5960    1.9550 H   0  0
    1.6640   -4.4300    1.3300 H   0  0
    5.4510   -3.7850   -0.5940 H   0  0
   -3.9790   -0.9220    1.9430 H   0  0
   -2.3460   -2.6370    2.4260 H   0  0
   -3.3790    2.1430   -0.9940 H   0  0
   -0.7750    2.3530   -1.7910 H   0  0
   -0.2360    0.6680   -2.1370 H   0  0
   -1.7750    1.2640   -2.7500 H   0  0
   -5.3910    0.0600   -0.3670 H   0  0
   -5.6190    1.7580    0.0510 H   0  0
   -5.8730    0.5100    1.2660 H   0  0
   -2.6170    2.0740    2.2810 H   0  0
   -4.2500    1.6850    2.8180 H   0  0
   -3.9960    2.9360    1.6040 H   0  0
  1  2  1  0
  1  3  1  0
  2  4  2  0
  3  5  2  0
  4  6  1  0
  6  7  2  0
  7  8  1  0
  7  9  1  0
  8 10  1  0
  9 11  2  0
  9 12  1  0
 10 13  2  0
 10 14  1  0
 11 15  1  0
 11 16  1  0
 12 17  2  0
 13 18  1  0
 14 19  2  0
 15 20  1  0
 15 21  2  0
 16 22  2  0
 16 23  1  0
 18 24  2  0
 20 25  1  0
 24 26  1  0
 25 27  1  0
 25 28  1  0
  4  5  1  0
 12 13  1  0
 17 21  1  0
 19 24  1  0
 22 25  1  0
  2 29  1  0
  3 30  1  0
  5 31  1  0
  6 32  1  0
 14 33  1  0
 17 34  1  0
 18 35  1  0
 19 36  1  0
 20 37  1  0
 21 38  1  0
 22 39  1  0
 23 40  1  0
 23 41  1  0
 23 42  1  0
 27 43  1  0
 27 44  1  0
 27 45  1  0
 28 46  1  0
 28 47  1  0
 28 48  1  0
M  END
> <Name>
CHEMBL134277

> <IC50 nM>
100

> <Molecule_ChEMBL_ID>
CHEMBL134277

> <Smiles>
CC1=CC(C)(C)Nc2ccc3c(c21)/C(=C/c1ccsc1)Oc1ccc(F)cc1-3

$$$$
CHEMBL3956011
  SciTegic08162514323D

 60 64  0  0  1  0            999 V2000
    4.3630    0.4490    1.7250 O   0  0
    3.8300   -0.0470    0.7620 C   0  0
    4.5760   -0.6760   -0.1930 N   0  0
    2.3920   -0.0920    0.4180 C   0  0
    5.9370   -0.7460   -0.0620 C   0  0
    1.6170    1.0880    0.4820 C   0  0
    1.8010   -1.3110    0.0270 C   0  0
    6.6250   -1.9430   -0.3530 C   0  0
    6.6700    0.3770    0.3650 C   0  0
    0.2380    1.0570    0.1600 C   0  0
    0.4260   -1.3500   -0.2950 C   0  0
    7.9800   -2.0350   -0.2300 N   0  0
    8.0660    0.2710    0.4900 C   0  0
   -0.3790   -0.1780   -0.2250 C   0  0
   -0.5270    2.3300    0.2400 C   0  0
    8.6990   -0.9510    0.1860 C   0  0
   -1.8420   -0.2380   -0.5660 C   0  0  1  0  0  0
   -1.9040    2.2810   -0.4340 C   0  0
   10.1740   -1.0660    0.3140 C   0  0
   -2.5740   -1.5680   -0.2030 C   0  0  1  0  0  0
   -2.6290    0.9920   -0.0430 C   0  0  1  0  0  0
   -2.4690   -1.8340    1.1840 O   0  0
   -4.0690   -1.5550   -0.6150 C   0  0
   -4.0430    0.9340   -0.6410 C   0  0  1  0  0  0
   -4.8010   -0.2970   -0.1230 C   0  0  1  0  0  0
   -5.0020    2.0780   -0.3120 C   0  0
   -6.1430   -0.0100   -0.8140 C   0  0  2  0  0  0
   -4.9650   -0.2810    1.4060 C   0  0
   -6.3950    1.4770   -0.5270 C   0  0
   -7.1900   -0.8200   -0.3180 O   0  0
    4.1330   -1.0880   -0.9900 H   0  0
    2.0780    2.0190    0.7810 H   0  0
    2.3890   -2.2150   -0.0290 H   0  0
    6.0800   -2.8180   -0.6860 H   0  0
    6.1820    1.3120    0.6000 H   0  0
    0.0080   -2.2970   -0.5980 H   0  0
    8.6450    1.1230    0.8180 H   0  0
   -0.6580    2.5780    1.2950 H   0  0
    0.0530    3.1430   -0.2010 H   0  0
   -1.8630   -0.1800   -1.6560 H   0  0
   -1.7950    2.3320   -1.5180 H   0  0
   -2.4850    3.1560   -0.1410 H   0  0
   10.5700   -1.6290   -0.5310 H   0  0
   10.6110   -0.0720    0.4020 H   0  0
   10.4160   -1.6190    1.2230 H   0  0
   -2.1150   -2.4140   -0.7150 H   0  0
   -2.6940    0.9590    1.0450 H   0  0
   -2.6840   -2.7720    1.3130 H   0  0
   -4.5760   -2.4530   -0.2640 H   0  0
   -4.1210   -1.5940   -1.7030 H   0  0
   -3.9490    0.8810   -1.7190 H   0  0
   -4.8260    2.9370   -0.9410 H   0  0
   -4.8830    2.3950    0.7150 H   0  0
   -6.0710   -0.1780   -1.8810 H   0  0
   -5.4400   -1.1910    1.7730 H   0  0
   -5.5760    0.5640    1.7210 H   0  0
   -3.9940   -0.1910    1.8970 H   0  0
   -6.9100    1.9470   -1.3520 H   0  0
   -6.9960    1.6290    0.3590 H   0  0
   -7.9890   -0.5980   -0.8220 H   0  0
  1  2  2  0
  2  3  1  0
  2  4  1  0
  3  5  1  0
  4  6  2  0
  4  7  1  0
  5  8  2  0
  5  9  1  0
  6 10  1  0
  7 11  2  0
  8 12  1  0
  9 13  2  0
 10 14  2  0
 10 15  1  0
 12 16  2  0
 17 14  1  0
 15 18  1  0
 16 19  1  0
 17 20  1  0
 17 21  1  0
 20 22  1  0
 20 23  1  0
 21 24  1  0
 23 25  1  0
 24 26  1  0
 25 27  1  0
 25 28  1  0
 26 29  1  0
 27 30  1  0
 11 14  1  0
 13 16  1  0
 21 18  1  0
 24 25  1  0
 27 29  1  0
  3 31  1  0
  6 32  1  0
  7 33  1  0
  8 34  1  0
  9 35  1  0
 11 36  1  0
 13 37  1  0
 15 38  1  0
 15 39  1  0
 17 40  1  0
 18 41  1  0
 18 42  1  0
 19 43  1  0
 19 44  1  0
 19 45  1  0
 20 46  1  0
 21 47  1  0
 22 48  1  0
 23 49  1  0
 23 50  1  0
 24 51  1  0
 26 52  1  0
 26 53  1  0
 27 54  1  0
 28 55  1  0
 28 56  1  0
 28 57  1  0
 29 58  1  0
 29 59  1  0
 30 60  1  0
M  END
> <Name>
CHEMBL3956011

> <IC50 nM>
91

> <Molecule_ChEMBL_ID>
CHEMBL3956011

> <Smiles>
Cc1ccc(NC(=O)c2ccc3c(c2)CC[C@@H]2[C@@H]3[C@@H](O)C[C@]3(C)[C@@H](O)CC[C@@H]23)cn1

$$$$
CHEMBL3093461
  SciTegic08162514323D

 45 47  0  0  1  0            999 V2000
    2.0860    1.2340   -4.6950 Cl  0  0
    0.5370    0.5900   -4.3300 C   0  0
    0.1990    0.2340   -3.0080 C   0  0
   -0.4030    0.4160   -5.3630 C   0  0
    1.3530    0.4430   -1.7330 S   0  0
   -1.0780   -0.2930   -2.7230 C   0  0
   -1.6760   -0.1100   -5.0800 C   0  0
    2.2810    1.4900   -2.1210 O   0  0
    2.0020   -0.8340   -1.4880 O   0  0
    0.6810    0.9390   -0.2050 N   0  0
   -1.4180   -0.6410   -1.4430 N   0  0
   -2.0120   -0.4610   -3.7620 C   0  0
   -2.8170   -0.3200   -6.3420 Cl  0  0
    1.5920    1.1170    0.9140 C   0  0  2  0  0  0
    0.8670    0.8710    2.2380 C   0  0
    2.2560    2.4940    0.8510 C   0  0
    0.3730   -0.5140    2.3180 N   0  0
    3.4960    2.5920    1.7420 C   0  0
   -0.9510   -0.9220    2.3380 C   0  0
    1.1700   -1.6860    2.3940 C   0  0
   -0.9420   -2.2910    2.4220 C   0  0
   -2.1620   -0.1930    2.2870 C   0  0
    0.3100   -2.7970    2.4570 C   0  0
   -2.1470   -3.0370    2.4610 C   0  0
   -3.3850   -0.9120    2.3260 C   0  0
   -3.3770   -2.3300    2.4120 C   0  0
   -0.1450    0.6870   -6.3790 H   0  0
    0.1520    1.8140   -0.3300 H   0  0
   -0.7290   -0.7810   -0.7310 H   0  0
   -2.3790   -0.7640   -1.1970 H   0  0
   -2.9940   -0.8630   -3.5510 H   0  0
    2.3200    0.3300    0.7210 H   0  0
    0.0250    1.5600    2.3010 H   0  0
    1.5270    1.0720    3.0820 H   0  0
    2.4980    2.7580   -0.1760 H   0  0
    1.5410    3.2770    1.1010 H   0  0
    3.9800    3.5600    1.6230 H   0  0
    3.2280    2.4530    2.7910 H   0  0
    4.2210    1.8200    1.4780 H   0  0
    2.2520   -1.6820    2.3980 H   0  0
   -2.1580    0.8850    2.2210 H   0  0
    0.6030   -3.8380    2.5230 H   0  0
   -2.1410   -4.1150    2.5270 H   0  0
   -4.3250   -0.3790    2.2890 H   0  0
   -4.3110   -2.8730    2.4410 H   0  0
  1  2  1  0
  2  3  2  0
  2  4  1  0
  3  5  1  0
  3  6  1  0
  4  7  2  0
  5  8  2  0
  5  9  2  0
  5 10  1  0
  6 11  1  0
  6 12  2  0
  7 13  1  0
 14 10  1  0
 14 15  1  0
 14 16  1  0
 15 17  1  0
 16 18  1  0
 17 19  1  0
 17 20  1  0
 19 21  1  0
 19 22  2  0
 20 23  2  0
 21 24  2  0
 22 25  1  0
 24 26  1  0
  7 12  1  0
 21 23  1  0
 25 26  2  0
  4 27  1  0
 10 28  1  0
 11 29  1  0
 11 30  1  0
 12 31  1  0
 14 32  1  0
 15 33  1  0
 15 34  1  0
 16 35  1  0
 16 36  1  0
 18 37  1  0
 18 38  1  0
 18 39  1  0
 20 40  1  0
 22 41  1  0
 23 42  1  0
 24 43  1  0
 25 44  1  0
 26 45  1  0
M  END
> <Name>
CHEMBL3093461

> <IC50 nM>
2000

> <Molecule_ChEMBL_ID>
CHEMBL3093461

> <Smiles>
CC[C@@H](Cn1ccc2ccccc21)NS(=O)(=O)c1c(N)cc(Cl)cc1Cl

$$$$
CHEMBL3094481
  SciTegic08162514323D

 58 59  0  0  1  0            999 V2000
    1.8960   -1.1970   -0.2230 S   0  0
    2.7560   -2.1700    0.4280 O   0  0
    1.5740   -1.5450   -1.5960 O   0  0
    0.3890   -1.2340    0.6460 N   0  0
    2.7050    0.3300   -0.2230 C   0  0
   -0.4000   -2.4530    0.5940 C   0  0  2  0  0  0
    4.1110    0.3810   -0.2230 C   0  0
    1.9570    1.5220   -0.2230 C   0  0
   -1.8030   -2.2070    1.1460 C   0  0
    0.3260   -3.5920    1.3110 C   0  0
    4.7700    1.6230   -0.2230 C   0  0
    4.9080   -0.8750   -0.2230 C   0  0
    2.6170    2.7640   -0.2230 C   0  0
    0.4710    1.4770   -0.2230 C   0  0
   -2.5140   -1.1440    0.3850 C   0  0
    0.8790   -4.6390    0.3440 C   0  0
    4.0220    2.8150   -0.2230 C   0  0
   -2.7600    0.1150    0.9670 C   0  0
   -2.9410   -1.4060   -0.9280 C   0  0
    4.7190    4.1290   -0.2230 C   0  0
   -3.4360    1.1110    0.2280 C   0  0
   -2.3090    0.3970    2.3590 C   0  0
   -3.6130   -0.4140   -1.6600 C   0  0
   -3.8610    0.8440   -1.0880 C   0  0
   -3.7010    2.4450    0.8340 C   0  0
   -4.4940    1.7680   -1.7870 O   0  0
   -4.9000    1.4410   -3.1080 C   0  0
    0.5590   -1.0020    1.6370 H   0  0
   -0.4360   -2.6350   -0.4810 H   0  0
   -1.7600   -1.9320    2.1990 H   0  0
   -2.3930   -3.1230    1.1250 H   0  0
    1.1170   -3.2030    1.9490 H   0  0
   -0.3240   -4.0570    2.0510 H   0  0
    5.8500    1.6620   -0.2230 H   0  0
    4.5630   -1.6270   -0.9320 H   0  0
    4.8850   -1.3200    0.7710 H   0  0
    5.9470   -0.6460   -0.4610 H   0  0
    2.0430    3.6800   -0.2230 H   0  0
    0.0450    0.7290   -0.8910 H   0  0
    0.0780    2.4490   -0.5180 H   0  0
    0.1130    1.2640    0.7850 H   0  0
    1.4360   -5.4060    0.8830 H   0  0
    0.0720   -5.1130   -0.2170 H   0  0
    1.5570   -4.1800   -0.3750 H   0  0
   -2.7540   -2.3690   -1.3790 H   0  0
    4.0510    4.9900   -0.2230 H   0  0
    5.3560    4.2010   -1.1040 H   0  0
    5.3560    4.2010    0.6580 H   0  0
   -2.8590   -0.1460    3.1270 H   0  0
   -2.4080    1.4610    2.5660 H   0  0
   -1.2540    0.1350    2.4590 H   0  0
   -3.9400   -0.6190   -2.6700 H   0  0
   -4.2910    3.1110    0.2070 H   0  0
   -2.7540    2.9420    1.0490 H   0  0
   -4.2310    2.3170    1.7770 H   0  0
   -5.4200    2.2210   -3.6640 H   0  0
   -5.5550    0.5720   -3.0590 H   0  0
   -4.0140    1.1580   -3.6760 H   0  0
  1  2  2  0
  1  3  2  0
  1  4  1  0
  1  5  1  0
  6  4  1  0
  5  7  2  0
  5  8  1  0
  6  9  1  0
  6 10  1  0
  7 11  1  0
  7 12  1  0
  8 13  2  0
  8 14  1  0
  9 15  1  0
 10 16  1  0
 11 17  2  0
 15 18  2  0
 15 19  1  0
 17 20  1  0
 18 21  1  0
 18 22  1  0
 19 23  2  0
 21 24  2  0
 21 25  1  0
 24 26  1  0
 26 27  1  0
 13 17  1  0
 23 24  1  0
  4 28  1  0
  6 29  1  0
  9 30  1  0
  9 31  1  0
 10 32  1  0
 10 33  1  0
 11 34  1  0
 12 35  1  0
 12 36  1  0
 12 37  1  0
 13 38  1  0
 14 39  1  0
 14 40  1  0
 14 41  1  0
 16 42  1  0
 16 43  1  0
 16 44  1  0
 19 45  1  0
 20 46  1  0
 20 47  1  0
 20 48  1  0
 22 49  1  0
 22 50  1  0
 22 51  1  0
 23 52  1  0
 25 53  1  0
 25 54  1  0
 25 55  1  0
 27 56  1  0
 27 57  1  0
 27 58  1  0
M  END
> <Name>
CHEMBL3094481

> <IC50 nM>
62

> <Molecule_ChEMBL_ID>
CHEMBL3094481

> <Smiles>
CCC(Cc1ccc(OC)c(C)c1C)NS(=O)(=O)c1c(C)cc(C)cc1C

$$$$
CHEMBL1940557
  SciTegic08162514323D

 57 60  0  0  1  0            999 V2000
   -6.8670   -0.1450   -0.6780 O   0  0
   -5.6800   -0.0450   -0.4750 C   0  0
   -4.7790   -1.1860   -0.6870 C   0  0
   -5.0920    1.2230   -0.0270 C   0  0
   -3.4920   -1.1370   -0.2910 C   0  0
   -3.8160    1.2790    0.4020 C   0  0
   -2.9380    0.0370    0.5230 C   0  0  2  0  0  0
   -2.5430   -2.2580   -0.6720 C   0  0
   -1.4730    0.2500    0.0430 C   0  0  1  0  0  0
   -2.9820   -0.3500    2.0080 C   0  0
   -1.2910   -2.3280    0.2130 C   0  0
   -0.7850    1.5940    0.4040 C   0  0  1  0  0  0
   -0.5820   -0.9690    0.4240 C   0  0  1  0  0  0
   -0.7320    1.7660    1.8090 O   0  0
    0.6370    1.6930   -0.2010 C   0  0
    0.7290   -0.8110   -0.3650 C   0  0  1  0  0  0
    1.4980    0.4470    0.0860 C   0  0  1  0  0  0
    1.7810   -1.9120   -0.2360 C   0  0
    2.8180    0.2810   -0.7050 C   0  0  1  0  0  0
    1.8520    0.3730    1.5820 C   0  0
    3.1330   -1.2170   -0.4750 C   0  0  2  0  0  0
    2.6040    0.5250   -2.0880 O   0  0
    3.9320    1.2050   -0.2680 C   0  0
    3.9430   -1.9040   -1.5740 C   0  0
    4.9810    0.7660    0.1430 O   0  0
    3.6970    2.6890   -0.3550 C   0  0
    4.9240    3.3480   -0.5800 O   0  0
   -5.1580   -2.0660   -1.1860 H   0  0
   -5.6900    2.1230   -0.0470 H   0  0
   -3.4220    2.2460    0.6760 H   0  0
   -3.0640   -3.2150   -0.6410 H   0  0
   -2.2360   -2.1090   -1.7090 H   0  0
   -1.5270    0.2790   -1.0490 H   0  0
   -3.9800   -0.6600    2.3180 H   0  0
   -2.6840    0.4900    2.6350 H   0  0
   -2.2990   -1.1760    2.2110 H   0  0
   -1.5980   -2.7110    1.1880 H   0  0
   -0.6050   -3.0760   -0.1800 H   0  0
   -1.3650    2.4300    0.0160 H   0  0
   -0.3500   -0.9180    1.4860 H   0  0
   -1.4880    2.3200    2.0570 H   0  0
    0.5230    1.8180   -1.2770 H   0  0
    1.1450    2.5960    0.1470 H   0  0
    0.4750   -0.7300   -1.4140 H   0  0
    1.7560   -2.3460    0.7540 H   0  0
    1.5920   -2.7090   -0.9410 H   0  0
    0.9610    0.2790    2.2050 H   0  0
    2.3870    1.2680    1.8990 H   0  0
    2.4900   -0.4860    1.7850 H   0  0
    3.7030   -1.3130    0.4410 H   0  0
    3.4550    0.4080   -2.5350 H   0  0
    4.2050   -2.9220   -1.2830 H   0  0
    3.3790   -1.9360   -2.5060 H   0  0
    4.8710   -1.3630   -1.7660 H   0  0
    3.2810    3.0550    0.5820 H   0  0
    3.0350    2.9100   -1.1950 H   0  0
    4.7330    4.2970   -0.6310 H   0  0
  1  2  2  0
  2  3  1  0
  2  4  1  0
  3  5  2  0
  4  6  2  0
  5  7  1  0
  5  8  1  0
  7  9  1  0
  7 10  1  0
  8 11  1  0
  9 12  1  0
  9 13  1  0
 12 14  1  0
 12 15  1  0
 13 16  1  0
 15 17  1  0
 16 18  1  0
 17 19  1  0
 17 20  1  0
 18 21  1  0
 19 22  1  0
 19 23  1  0
 21 24  1  0
 23 25  2  0
 23 26  1  0
 26 27  1  0
  6  7  1  0
 13 11  1  0
 16 17  1  0
 19 21  1  0
  3 28  1  0
  4 29  1  0
  6 30  1  0
  8 31  1  0
  8 32  1  0
  9 33  1  0
 10 34  1  0
 10 35  1  0
 10 36  1  0
 11 37  1  0
 11 38  1  0
 12 39  1  0
 13 40  1  0
 14 41  1  0
 15 42  1  0
 15 43  1  0
 16 44  1  0
 18 45  1  0
 18 46  1  0
 20 47  1  0
 20 48  1  0
 20 49  1  0
 21 50  1  0
 22 51  1  0
 24 52  1  0
 24 53  1  0
 24 54  1  0
 26 55  1  0
 26 56  1  0
 27 57  1  0
M  END
> <Name>
CHEMBL1940557

> <IC50 nM>
1.6

> <Molecule_ChEMBL_ID>
CHEMBL1940557

> <Smiles>
C[C@@H]1C[C@H]2[C@@H]3CCC4=CC(=O)C=C[C@]4(C)[C@H]3[C@@H](O)C[C@]2(C)[C@@]1(O)C(=O)CO

$$$$
CHEMBL1940698
  SciTegic08162514323D

 72 77  0  0  1  0            999 V2000
    4.3500   -0.3130   -2.2130 S   0  0
    4.4770    1.2950   -1.7130 C   0  0
    4.0610   -1.1600   -0.7090 C   0  0
    4.0430    2.5720   -2.0160 O   0  0
    5.2790    1.4000   -0.6390 N   0  0
    2.7970   -0.6410   -0.0760 C   0  0
    4.6150    3.4260   -1.0900 C   0  0
    5.3610    2.6720   -0.2660 N   0  0
    2.8380    0.1310    0.8540 O   0  0
    1.4770   -1.1110   -0.6390 C   0  0  2  0  0  0
    4.4360    4.8930   -1.0180 C   0  0
    1.1580   -0.2420   -1.7170 O   0  0
    0.3180   -1.1470    0.3890 C   0  0  2  0  0  0
    1.5020   -2.5800   -1.1290 C   0  0  1  0  0  0
    3.6170    5.5490   -1.9530 C   0  0
    5.0860    5.6330   -0.0120 C   0  0
   -0.7380   -1.9530   -0.3930 C   0  0  1  0  0  0
   -0.2930    0.1990    0.8320 C   0  0
    0.8180   -1.9340    1.6130 C   0  0
    0.0740   -3.1230   -0.9450 C   0  0
    2.0180   -2.7950   -2.5550 C   0  0
    3.4490    6.9430   -1.8850 C   0  0
    4.9160    7.0250    0.0570 C   0  0
   -1.9570   -2.2700    0.4900 C   0  0  1  0  0  0
   -1.6330    0.0310    1.5920 C   0  0  1  0  0  0
    4.0980    7.6820   -0.8810 C   0  0
   -2.6110   -0.8970    0.8240 C   0  0  2  0  0  0
   -2.9490   -3.2850   -0.1230 C   0  0
   -1.3960   -0.4650    2.8970 O   0  0
   -4.0390   -1.0900    1.4160 C   0  0  2  0  0  0
   -4.2360   -2.6540   -0.6740 C   0  0
   -4.8890   -1.6740    0.2830 C   0  0
   -4.6450    0.1860    1.9900 C   0  0
   -4.0250   -2.0960    2.5760 C   0  0
   -6.1800   -1.3240    0.1040 C   0  0
   -5.9280    0.5390    1.7750 C   0  0
   -6.7970   -0.2660    0.9100 C   0  0
   -7.9860   -0.0530    0.8540 O   0  0
    3.9650   -2.2270   -0.9060 H   0  0
    4.9040   -1.0020   -0.0350 H   0  0
    1.8730   -0.3180   -2.3650 H   0  0
    2.1470   -3.1500   -0.4750 H   0  0
    3.1150    4.9880   -2.7290 H   0  0
    5.7150    5.1350    0.7110 H   0  0
   -1.0860   -1.3810   -1.2420 H   0  0
   -0.4940    0.8140   -0.0470 H   0  0
    0.4240    0.7660    1.4280 H   0  0
    0.0040   -2.1820    2.2970 H   0  0
    1.5550   -1.3560    2.1680 H   0  0
    1.2890   -2.8670    1.3050 H   0  0
    0.0780   -3.9470   -0.2420 H   0  0
   -0.3550   -3.4940   -1.8650 H   0  0
    2.1620   -3.8560   -2.7560 H   0  0
    1.3160   -2.3870   -3.2830 H   0  0
    2.9750   -2.2950   -2.6970 H   0  0
    2.8200    7.4470   -2.6040 H   0  0
    5.4140    7.5940    0.8280 H   0  0
   -1.6000   -2.7270    1.4140 H   0  0
   -2.0680    1.0210    1.7130 H   0  0
    3.9670    8.7540   -0.8280 H   0  0
   -2.7640   -0.3730   -0.1230 H   0  0
   -3.2360   -3.9960    0.6520 H   0  0
   -2.4730   -3.8870   -0.8960 H   0  0
   -2.0100   -0.0060    3.4920 H   0  0
   -4.0040   -2.1290   -1.6000 H   0  0
   -4.9410   -3.4450   -0.9370 H   0  0
   -4.0410    0.8400    2.6020 H   0  0
   -5.0330   -2.3930    2.8670 H   0  0
   -3.5390   -1.6660    3.4530 H   0  0
   -3.4790   -2.9960    2.2990 H   0  0
   -6.7700   -1.8160   -0.6560 H   0  0
   -6.3180    1.4320    2.2420 H   0  0
  1  2  1  0
  1  3  1  0
  2  4  1  0
  2  5  2  0
  3  6  1  0
  4  7  1  0
  5  8  1  0
  6  9  2  0
  6 10  1  0
  7 11  1  0
 10 12  1  0
 10 13  1  0
 10 14  1  0
 11 15  2  0
 11 16  1  0
 13 17  1  0
 13 18  1  0
 13 19  1  0
 14 20  1  0
 14 21  1  0
 15 22  1  0
 16 23  2  0
 17 24  1  0
 18 25  1  0
 22 26  2  0
 27 24  1  0
 24 28  1  0
 25 29  1  0
 27 30  1  0
 28 31  1  0
 30 32  1  0
 30 33  1  0
 30 34  1  0
 32 35  2  0
 33 36  2  0
 35 37  1  0
 37 38  2  0
  7  8  2  0
 17 20  1  0
 23 26  1  0
 25 27  1  0
 31 32  1  0
 36 37  1  0
  3 39  1  0
  3 40  1  0
 12 41  1  0
 14 42  1  0
 15 43  1  0
 16 44  1  0
 17 45  1  0
 18 46  1  0
 18 47  1  0
 19 48  1  0
 19 49  1  0
 19 50  1  0
 20 51  1  0
 20 52  1  0
 21 53  1  0
 21 54  1  0
 21 55  1  0
 22 56  1  0
 23 57  1  0
 24 58  1  0
 25 59  1  0
 26 60  1  0
 27 61  1  0
 28 62  1  0
 28 63  1  0
 29 64  1  0
 31 65  1  0
 31 66  1  0
 33 67  1  0
 34 68  1  0
 34 69  1  0
 34 70  1  0
 35 71  1  0
 36 72  1  0
M  END
> <Name>
CHEMBL1940698

> <IC50 nM>
5.1

> <Molecule_ChEMBL_ID>
CHEMBL1940698

> <Smiles>
C[C@@H]1C[C@H]2[C@@H]3CCC4=CC(=O)C=C[C@]4(C)[C@H]3[C@@H](O)C[C@]2(C)[C@@]1(O)C(=O)CSc1nnc(-c2ccccc2)o1

$$$$
CHEMBL3940724
  SciTegic08162514323D

 57 61  0  0  1  0            999 V2000
    6.9300    5.9080   -1.7790 F   0  0
    6.4410    4.6740   -1.6840 C   0  0
    6.9770    3.6430   -2.4770 C   0  0
    5.3930    4.3980   -0.7910 C   0  0
    6.4610    2.3380   -2.3770 C   0  0
    4.8750    3.0960   -0.6890 C   0  0
    5.4100    2.0610   -1.4820 C   0  0
    4.9120    0.8010   -1.3850 N   0  0
    5.6620   -0.3540   -1.3610 N   0  0
    3.6050    0.4470   -1.2950 C   0  0
    4.9320   -1.5200   -1.2560 C   0  0
    3.6800   -0.9320   -1.2210 C   0  0
    2.3830    1.1560   -1.2680 C   0  0
    2.4820   -1.6880   -1.1130 C   0  0
    1.1850    0.4060   -1.1600 C   0  0
    1.2340   -1.0120   -1.0840 C   0  0
    0.0980   -1.7130   -0.9820 O   0  0
   -1.0530   -1.0510   -0.4770 C   0  0  2  0  0  0
   -0.7480   -0.4750    0.8590 C   0  0
   -2.2210   -2.0350   -0.4100 C   0  0  1  0  0  0
   -1.1430    0.8400    1.1660 C   0  0
   -0.0630   -1.2440    1.8170 C   0  0
   -3.4530   -1.3630    0.0270 N   0  0
   -2.4420   -2.7790   -1.7280 C   0  0
   -0.8520    1.3850    2.4300 C   0  0
    0.2260   -0.6990    3.0800 C   0  0
   -4.4490   -2.1000    0.6020 C   0  0
   -0.1680    0.6150    3.3870 C   0  0
   -4.3210   -3.2910    0.7500 O   0  0
   -5.6700   -1.4380    1.0370 C   0  0
   -5.9280   -0.1060    0.9220 N   0  0
   -6.7290   -2.0510    1.6190 N   0  0
   -7.1150    0.1230    1.4160 O   0  0
   -7.6120   -1.0610    1.8440 C   0  0
   -8.9650   -1.2600    2.4860 C   0  0
    7.7830    3.8500   -3.1660 H   0  0
    4.9780    5.1880   -0.1800 H   0  0
    6.8850    1.5590   -2.9960 H   0  0
    4.0680    2.9040    0.0040 H   0  0
    5.2850   -2.5430   -1.2190 H   0  0
    2.3590    2.2340   -1.3280 H   0  0
    2.5100   -2.7660   -1.0550 H   0  0
    0.2340    0.9180   -1.1390 H   0  0
   -1.3150   -0.2500   -1.1680 H   0  0
   -1.9960   -2.8540    0.2740 H   0  0
   -1.6680    1.4360    0.4360 H   0  0
    0.2440   -2.2540    1.5880 H   0  0
   -3.5610   -0.3770   -0.0960 H   0  0
   -3.2580   -3.4940   -1.6370 H   0  0
   -2.6700   -2.0800   -2.5330 H   0  0
   -1.5450   -3.3320   -2.0140 H   0  0
   -1.1560    2.3930    2.6640 H   0  0
    0.7520   -1.2890    3.8150 H   0  0
    0.0550    1.0330    4.3580 H   0  0
   -9.5510   -0.3460    2.5920 H   0  0
   -8.8360   -1.6880    3.4810 H   0  0
   -9.5510   -1.9630    1.8950 H   0  0
  1  2  1  0
  2  3  2  0
  2  4  1  0
  3  5  1  0
  4  6  2  0
  5  7  2  0
  7  8  1  0
  8  9  1  0
  8 10  1  0
  9 11  2  0
 10 12  1  0
 10 13  2  0
 12 14  2  0
 13 15  1  0
 14 16  1  0
 16 17  1  0
 18 17  1  0
 18 19  1  0
 18 20  1  0
 19 21  2  0
 19 22  1  0
 20 23  1  0
 20 24  1  0
 21 25  1  0
 22 26  2  0
 23 27  1  0
 25 28  2  0
 27 29  2  0
 27 30  1  0
 30 31  2  0
 30 32  1  0
 31 33  1  0
 32 34  2  0
 34 35  1  0
  6  7  1  0
 11 12  1  0
 15 16  2  0
 26 28  1  0
 33 34  1  0
  3 36  1  0
  4 37  1  0
  5 38  1  0
  6 39  1  0
 11 40  1  0
 13 41  1  0
 14 42  1  0
 15 43  1  0
 18 44  1  0
 20 45  1  0
 21 46  1  0
 22 47  1  0
 23 48  1  0
 24 49  1  0
 24 50  1  0
 24 51  1  0
 25 52  1  0
 26 53  1  0
 28 54  1  0
 35 55  1  0
 35 56  1  0
 35 57  1  0
M  END
> <Name>
CHEMBL3940724

> <IC50 nM>
0.09

> <Molecule_ChEMBL_ID>
CHEMBL3940724

> <Smiles>
Cc1nc(C(=O)N[C@@H](C)[C@H](Oc2ccc3c(cnn3-c3ccc(F)cc3)c2)c2ccccc2)no1

$$$$
CHEMBL3976935
  SciTegic08162514323D

 61 65  0  0  1  0            999 V2000
   -3.8690   -1.4750   -2.3770 S   0  0
   -5.0640   -0.8280   -1.8650 O   0  0
   -2.8010   -0.5390   -2.6880 O   0  0
   -3.2710   -2.4730   -1.0840 N   0  0
   -4.2930   -2.3790   -3.8610 C   0  0
   -3.0470   -1.8510    0.2090 C   0  0  2  0  0  0
   -4.0800   -1.5820   -5.1290 C   0  0
   -3.1000   -2.6740   -4.7420 C   0  0
   -1.8810   -0.8650    0.1330 C   0  0  2  0  0  0
   -2.8500   -2.9160    1.2890 C   0  0
   -0.7150   -1.5450   -0.3110 O   0  0
   -1.6110   -0.2320    1.4510 C   0  0
    0.4220   -0.8420   -0.4140 C   0  0
   -2.2150    0.9900    1.7830 C   0  0
   -0.7540   -0.8570    2.3710 C   0  0
    1.6700   -1.5170   -0.4430 C   0  0
    0.3730    0.5760   -0.4900 C   0  0
   -1.9590    1.5840    3.0290 C   0  0
   -0.5060   -0.2540    3.6150 C   0  0
    2.8670   -0.7620   -0.5510 C   0  0
    1.5700    1.3260   -0.5980 C   0  0
   -1.1020    0.9730    3.9650 C   0  0
    2.7930    0.6150   -0.6250 C   0  0
    4.1190   -1.3510   -0.5860 C   0  0
   -0.7970    1.6920    5.4630 S   0  0
    4.1000    0.9710   -0.7150 N   0  0
    4.8500   -0.1850   -0.6910 N   0  0
   -0.2520    0.3400    6.4320 C   0  0
    4.5980    2.2310   -0.8130 C   0  0
    5.6470    2.5100   -1.7090 C   0  0
    4.0670    3.2640   -0.0160 C   0  0
    6.1620    3.8130   -1.8090 C   0  0
    4.5820    4.5690   -0.1170 C   0  0
    5.6290    4.8440   -1.0140 C   0  0
    6.1170    6.0780   -1.1090 F   0  0
   -3.9040   -3.2750   -0.9510 H   0  0
   -5.1190   -3.0820   -3.7500 H   0  0
   -3.9880   -1.3240    0.3570 H   0  0
   -3.7460   -0.5470   -5.0370 H   0  0
   -4.7500   -1.7750   -5.9670 H   0  0
   -3.1130   -3.5960   -5.3220 H   0  0
   -2.1130   -2.3650   -4.3930 H   0  0
   -2.1000   -0.0640   -0.5720 H   0  0
   -3.6500   -3.6560    1.2790 H   0  0
   -2.8260   -2.4630    2.2790 H   0  0
   -1.9060   -3.4450    1.1410 H   0  0
   -2.8770    1.4810    1.0820 H   0  0
   -0.2850   -1.7990    2.1290 H   0  0
    1.6970   -2.5980   -0.3830 H   0  0
   -0.5780    1.0860   -0.4690 H   0  0
   -2.4280    2.5260    3.2730 H   0  0
    0.1560   -0.7420    4.3160 H   0  0
    1.5470    2.4040   -0.6580 H   0  0
    4.4730   -2.3730   -0.5490 H   0  0
   -0.2520    0.6230    7.4830 H   0  0
   -0.8770   -0.5290    6.2290 H   0  0
    0.7720    0.0840    6.1540 H   0  0
    6.0700    1.7310   -2.3300 H   0  0
    3.2600    3.0720    0.6800 H   0  0
    6.9670    4.0220   -2.5000 H   0  0
    4.1700    5.3560    0.4960 H   0  0
  1  2  2  0
  1  3  2  0
  1  4  1  0
  1  5  1  0
  4  6  1  0
  5  7  1  0
  5  8  1  0
  6  9  1  0
  6 10  1  0
  9 11  1  0
  9 12  1  0
 11 13  1  0
 12 14  2  0
 12 15  1  0
 13 16  2  0
 13 17  1  0
 14 18  1  0
 15 19  2  0
 16 20  1  0
 17 21  2  0
 18 22  2  0
 20 23  2  0
 20 24  1  0
 22 25  1  0
 23 26  1  0
 24 27  2  0
 25 28  1  0
 26 29  1  0
 29 30  2  0
 29 31  1  0
 30 32  1  0
 31 33  2  0
 32 34  2  0
 34 35  1  0
  7  8  1  0
 19 22  1  0
 21 23  1  0
 26 27  1  0
 33 34  1  0
  4 36  1  0
  5 37  1  0
  6 38  1  0
  7 39  1  0
  7 40  1  0
  8 41  1  0
  8 42  1  0
  9 43  1  0
 10 44  1  0
 10 45  1  0
 10 46  1  0
 14 47  1  0
 15 48  1  0
 16 49  1  0
 17 50  1  0
 18 51  1  0
 19 52  1  0
 21 53  1  0
 24 54  1  0
 28 55  1  0
 28 56  1  0
 28 57  1  0
 30 58  1  0
 31 59  1  0
 32 60  1  0
 33 61  1  0
M  END
> <Name>
CHEMBL3976935

> <IC50 nM>
21.2

> <Molecule_ChEMBL_ID>
CHEMBL3976935

> <Smiles>
CSc1ccc([C@@H](Oc2ccc3c(cnn3-c3ccc(F)cc3)c2)[C@H](C)NS(=O)(=O)C2CC2)cc1

$$$$
CHEMBL3897280
  SciTegic08162514323D

 61 65  0  0  1  0            999 V2000
   -3.8540   -1.6740   -2.2170 S   0  0
   -5.0940   -1.1970   -1.6310 O   0  0
   -2.9080   -0.6080   -2.5000 O   0  0
   -3.1020   -2.6700   -1.0040 N   0  0
   -4.2270   -2.5350   -3.7400 C   0  0
   -2.8610   -2.0880    0.3050 C   0  0  2  0  0  0
   -4.2230   -1.6330   -4.9530 C   0  0
   -3.0610   -2.5760   -4.7030 C   0  0
   -1.6910   -1.1060    0.2480 C   0  0  2  0  0  0
   -2.6620   -3.1840    1.3500 C   0  0
   -0.5200   -1.7890   -0.1740 O   0  0
   -1.4450   -0.4710    1.5680 C   0  0
    0.6170   -1.0860   -0.2770 C   0  0
   -2.0510    0.7600    1.8810 C   0  0
   -0.6060   -1.0980    2.5060 C   0  0
    1.8650   -1.7640   -0.3070 C   0  0
    0.5680    0.3320   -0.3530 C   0  0
   -1.8180    1.3650    3.1310 C   0  0
   -0.3750   -0.4960    3.7540 C   0  0
    3.0630   -1.0080   -0.4140 C   0  0
    1.7660    1.0800   -0.4610 C   0  0
   -2.3870    2.5180    3.4240 O   0  0
   -0.9810    0.7340    4.0670 C   0  0
    2.9880    0.3710   -0.4880 C   0  0
    4.3140   -1.5960   -0.4490 C   0  0
   -2.1880    3.0450    4.7270 C   0  0
    4.2950    0.7250   -0.5780 N   0  0
    5.0450   -0.4300   -0.5550 N   0  0
    4.7930    1.9860   -0.6760 C   0  0
    5.8380    2.2660   -1.5780 C   0  0
    4.2660    3.0180    0.1250 C   0  0
    6.3520    3.5680   -1.6780 C   0  0
    4.7810    4.3200    0.0240 C   0  0
    5.8240    4.5980   -0.8770 C   0  0
    6.3130    5.8320   -0.9730 F   0  0
   -3.6520   -3.5310   -0.8790 H   0  0
   -4.9240   -3.3650   -3.6370 H   0  0
   -3.7990   -1.5590    0.4750 H   0  0
   -4.0490   -0.5670   -4.8010 H   0  0
   -4.9060   -1.8750   -5.7660 H   0  0
   -2.9690   -3.4510   -5.3500 H   0  0
   -2.1150   -2.1410   -4.3850 H   0  0
   -1.8930   -0.3050   -0.4650 H   0  0
   -3.4730   -3.9120    1.3360 H   0  0
   -2.6150   -2.7580    2.3520 H   0  0
   -1.7290   -3.7190    1.1740 H   0  0
   -2.6950    1.2440    1.1620 H   0  0
   -0.1390   -2.0430    2.2720 H   0  0
    1.8930   -2.8420   -0.2460 H   0  0
   -0.3830    0.8420   -0.3320 H   0  0
    0.2700   -0.9790    4.4750 H   0  0
    1.7420    2.1600   -0.5190 H   0  0
   -0.7990    1.1930    5.0260 H   0  0
    4.6680   -2.6190   -0.4120 H   0  0
   -2.6860    4.0140    4.7830 H   0  0
   -2.5080    2.2970    5.4510 H   0  0
   -1.1190    3.2110    4.8690 H   0  0
    6.2560    1.4880   -2.2010 H   0  0
    3.4630    2.8240    0.8240 H   0  0
    7.1520    3.7770   -2.3710 H   0  0
    4.3730    5.1070    0.6410 H   0  0
  1  2  2  0
  1  3  2  0
  1  4  1  0
  1  5  1  0
  4  6  1  0
  5  7  1  0
  5  8  1  0
  6  9  1  0
  6 10  1  0
  9 11  1  0
  9 12  1  0
 11 13  1  0
 12 14  2  0
 12 15  1  0
 13 16  2  0
 13 17  1  0
 14 18  1  0
 15 19  2  0
 16 20  1  0
 17 21  2  0
 18 22  1  0
 18 23  2  0
 20 24  2  0
 20 25  1  0
 22 26  1  0
 24 27  1  0
 25 28  2  0
 27 29  1  0
 29 30  2  0
 29 31  1  0
 30 32  1  0
 31 33  2  0
 32 34  2  0
 34 35  1  0
  7  8  1  0
 19 23  1  0
 21 24  1  0
 27 28  1  0
 33 34  1  0
  4 36  1  0
  5 37  1  0
  6 38  1  0
  7 39  1  0
  7 40  1  0
  8 41  1  0
  8 42  1  0
  9 43  1  0
 10 44  1  0
 10 45  1  0
 10 46  1  0
 14 47  1  0
 15 48  1  0
 16 49  1  0
 17 50  1  0
 19 51  1  0
 21 52  1  0
 23 53  1  0
 25 54  1  0
 26 55  1  0
 26 56  1  0
 26 57  1  0
 30 58  1  0
 31 59  1  0
 32 60  1  0
 33 61  1  0
M  END
> <Name>
CHEMBL3897280

> <IC50 nM>
0.62

> <Molecule_ChEMBL_ID>
CHEMBL3897280

> <Smiles>
COc1cccc([C@@H](Oc2ccc3c(cnn3-c3ccc(F)cc3)c2)[C@H](C)NS(=O)(=O)C2CC2)c1

$$$$
CHEMBL1911545
  SciTegic08162514323D

 55 57  0  0  1  0            999 V2000
    6.3560   -0.1910    2.9550 F   0  0
    5.5550    0.1760    1.9590 C   0  0
    4.4400   -0.6130    1.6230 C   0  0
    5.8200    1.3540    1.2380 C   0  0
    3.5940   -0.2270    0.5680 C   0  0
    4.9750    1.7400    0.1860 C   0  0
    3.8600    0.9530   -0.1520 C   0  0
    2.4180   -1.0680    0.2230 C   0  0
    3.0720    1.3260   -1.1430 O   0  0
    1.4200   -0.1840    0.9710 C   0  0
    2.5310   -2.4690    0.8280 C   0  0
    2.1680   -1.0960   -1.2850 C   0  0
    3.4320    2.4860   -1.8790 C   0  0
   -0.0250   -0.6580    0.8130 C   0  0  1  0  0  0
   -0.0620   -2.0470    1.0590 O   0  0
   -0.8360    0.0430    1.9040 C   0  0
   -0.5800   -0.4060   -0.5900 C   0  0
   -2.0860   -0.5140    1.9710 F   0  0
   -0.9430    1.3770    1.6060 F   0  0
   -0.2030   -0.1070    3.1110 F   0  0
   -2.0940   -0.4390   -0.5940 C   0  0
   -2.8950    0.7270   -0.6700 N   0  0
   -2.9430   -1.5590   -0.5290 C   0  0
   -4.2190    0.3110   -0.6500 C   0  0
   -4.1990   -1.0610   -0.5660 C   0  0
   -5.4390    1.0290   -0.6990 C   0  0
   -5.3960   -1.8150   -0.5250 C   0  0
   -6.6560    0.2990   -0.6600 C   0  0
   -5.4530    2.4980   -0.7910 C   0  0
   -6.6330   -1.1210   -0.5740 C   0  0
    4.2360   -1.5200    2.1780 H   0  0
    6.6760    1.9630    1.4920 H   0  0
    5.1840    2.6460   -0.3650 H   0  0
    1.5200    0.8570    0.6580 H   0  0
    1.6880   -0.1060    2.0240 H   0  0
    3.5390   -2.8710    0.7340 H   0  0
    1.8500   -3.1600    0.3300 H   0  0
    2.2750   -2.4530    1.8870 H   0  0
    1.5570   -1.9490   -1.5800 H   0  0
    3.1090   -1.1560   -1.8300 H   0  0
    1.6540   -0.1890   -1.6070 H   0  0
    3.3400    3.3520   -1.2230 H   0  0
    4.4140    2.3180   -2.3200 H   0  0
    2.7190    2.6070   -2.6930 H   0  0
   -0.2440   -2.4820    0.2110 H   0  0
   -0.1970   -1.1450   -1.2930 H   0  0
   -0.2360    0.5550   -0.9730 H   0  0
   -2.5680    1.6640   -0.7250 H   0  0
   -2.6450   -2.5960   -0.4650 H   0  0
   -5.3790   -2.8930   -0.4590 H   0  0
   -7.6020    0.8160   -0.6970 H   0  0
   -6.4510    2.9380   -0.8180 H   0  0
   -4.9280    2.8130   -1.6930 H   0  0
   -4.9260    2.9200    0.0640 H   0  0
   -7.5630   -1.6720   -0.5430 H   0  0
  1  2  1  0
  2  3  2  0
  2  4  1  0
  3  5  1  0
  4  6  2  0
  5  7  2  0
  5  8  1  0
  7  9  1  0
  8 10  1  0
  8 11  1  0
  8 12  1  0
  9 13  1  0
 10 14  1  0
 14 15  1  0
 14 16  1  0
 14 17  1  0
 16 18  1  0
 16 19  1  0
 16 20  1  0
 17 21  1  0
 21 22  1  0
 21 23  2  0
 22 24  1  0
 23 25  1  0
 24 26  1  0
 25 27  1  0
 26 28  2  0
 26 29  1  0
 27 30  2  0
  6  7  1  0
 24 25  2  0
 28 30  1  0
  3 31  1  0
  4 32  1  0
  6 33  1  0
 10 34  1  0
 10 35  1  0
 11 36  1  0
 11 37  1  0
 11 38  1  0
 12 39  1  0
 12 40  1  0
 12 41  1  0
 13 42  1  0
 13 43  1  0
 13 44  1  0
 15 45  1  0
 17 46  1  0
 17 47  1  0
 22 48  1  0
 23 49  1  0
 27 50  1  0
 28 51  1  0
 29 52  1  0
 29 53  1  0
 29 54  1  0
 30 55  1  0
M  END
> <Name>
CHEMBL1911545

> <IC50 nM>
56

> <Molecule_ChEMBL_ID>
CHEMBL1911545

> <Smiles>
COc1ccc(F)cc1C(C)(C)CC(O)(Cc1cc2cccc(C)c2[nH]1)C(F)(F)F

$$$$
CHEMBL1911660
  SciTegic08162514323D

 59 62  0  0  1  0            999 V2000
   -3.1140   -1.2880    1.4120 S   0  0
   -2.4380   -2.5660    1.2780 O   0  0
   -4.5590   -1.4110    1.4950 O   0  0
   -2.7330   -0.3320    0.0450 C   0  0
   -2.5180   -0.4700    2.8860 C   0  0
   -1.7650    0.6860    0.1360 C   0  0
   -3.3860   -0.5570   -1.1840 C   0  0
   -1.4620    1.4620   -1.0050 C   0  0
   -3.0800    0.2280   -2.3250 C   0  0
   -2.1130    1.2420   -2.2490 C   0  0
   -0.4480    2.5240   -0.9030 C   0  0
   -3.6330    0.1860   -3.7260 C   0  0
   -1.9500    1.8700   -3.4130 O   0  0
    0.3170    2.4480    0.4180 C   0  0
   -1.0530    3.9060   -1.1560 C   0  0
    0.3700    2.0130   -2.0890 C   0  0
   -2.8120    1.3130   -4.4200 C   0  0
    1.2640    1.2490    0.4830 C   0  0  1  0  0  0
    0.8170    0.2830   -0.4410 O   0  0
    2.6340    1.7500    0.0260 C   0  0
    1.3040    0.6030    1.8690 C   0  0
    2.5100    3.0150   -0.4880 F   0  0
    3.1290    0.9120   -0.9390 F   0  0
    3.4920    1.7740    1.0950 F   0  0
    1.9240   -0.7770    1.8130 C   0  0
    3.3230   -1.0030    1.8270 N   0  0
    1.2750   -2.0230    1.7400 C   0  0
    3.5110   -2.3740    1.7650 C   0  0
    2.2640   -2.9430    1.7140 C   0  0
    4.6850   -3.1620    1.7490 C   0  0
    2.0970   -4.3470    1.6430 C   0  0
    4.5490   -4.5730    1.6770 C   0  0
    3.2570   -5.1640    1.6240 C   0  0
   -2.8510   -0.9270    3.8180 H   0  0
   -2.8510    0.5670    2.8860 H   0  0
   -1.4280   -0.4700    2.8860 H   0  0
   -1.2600    0.8690    1.0740 H   0  0
   -4.1310   -1.3360   -1.2610 H   0  0
   -4.6930    0.4000   -3.7230 H   0  0
   -3.4650   -0.7800   -4.1790 H   0  0
   -0.3720    2.4410    1.2630 H   0  0
    0.8570    3.3760    0.6050 H   0  0
   -1.6010    3.9440   -2.0980 H   0  0
   -0.2730    4.6670   -1.1930 H   0  0
   -1.7440    4.1760   -0.3570 H   0  0
    0.1760    2.6130   -2.9790 H   0  0
    1.4360    2.0450   -1.8640 H   0  0
    0.1090    0.9800   -2.3210 H   0  0
   -2.2020    0.9280   -5.2250 H   0  0
   -3.4450    2.0970   -4.8110 H   0  0
    0.3110   -0.3780    0.0580 H   0  0
    0.3010    0.5350    2.2910 H   0  0
    1.8640    1.2250    2.5670 H   0  0
    4.0330   -0.3090    1.8740 H   0  0
    0.2070   -2.2000    1.7110 H   0  0
    5.6620   -2.7030    1.7900 H   0  0
    1.1140   -4.7940    1.6030 H   0  0
    5.4300   -5.1980    1.6620 H   0  0
    3.1570   -6.2380    1.5690 H   0  0
  1  2  2  0
  1  3  2  0
  1  4  1  0
  1  5  1  0
  4  6  2  0
  4  7  1  0
  6  8  1  0
  7  9  2  0
  8 10  2  0
  8 11  1  0
  9 12  1  0
 10 13  1  0
 11 14  1  0
 11 15  1  0
 11 16  1  0
 12 17  1  0
 14 18  1  0
 18 19  1  0
 18 20  1  0
 18 21  1  0
 20 22  1  0
 20 23  1  0
 20 24  1  0
 21 25  1  0
 25 26  1  0
 25 27  2  0
 26 28  1  0
 27 29  1  0
 28 30  1  0
 29 31  1  0
 30 32  2  0
 31 33  2  0
  9 10  1  0
 13 17  1  0
 28 29  2  0
 32 33  1  0
  5 34  1  0
  5 35  1  0
  5 36  1  0
  6 37  1  0
  7 38  1  0
 12 39  1  0
 12 40  1  0
 14 41  1  0
 14 42  1  0
 15 43  1  0
 15 44  1  0
 15 45  1  0
 16 46  1  0
 16 47  1  0
 16 48  1  0
 17 49  1  0
 17 50  1  0
 19 51  1  0
 21 52  1  0
 21 53  1  0
 26 54  1  0
 27 55  1  0
 30 56  1  0
 31 57  1  0
 32 58  1  0
 33 59  1  0
M  END
> <Name>
CHEMBL1911660

> <IC50 nM>
6

> <Molecule_ChEMBL_ID>
CHEMBL1911660

> <Smiles>
CC(C)(CC(O)(Cc1cc2ccccc2[nH]1)C(F)(F)F)c1cc(S(C)(=O)=O)cc2c1OCC2

$$$$
CHEMBL3622992
  SciTegic08162514323D

 42 45  0  0  1  0            999 V2000
    1.8300   -0.5700   -5.6560 Cl  0  0
    1.4590   -0.6430   -3.9820 C   0  0
    0.8790    0.4670   -3.3400 C   0  0
    1.7340   -1.8110   -3.2480 C   0  0
    0.5720    0.4080   -1.9710 C   0  0
    1.4300   -1.8690   -1.8770 C   0  0
    0.8480   -0.7600   -1.2380 C   0  0
    0.5210   -0.8240    0.2190 C   0  0  1  0  0  0
    1.5330   -0.1410    1.0680 N   0  0
   -0.8560   -0.2110    0.4380 C   0  0
    1.4340    1.3380    1.1110 C   0  0
    2.9000   -0.6190    0.8790 C   0  0
   -2.1110   -0.7310    0.0330 N   0  0
   -1.0680    1.0040    1.0980 C   0  0
    0.0720    1.8180    1.6800 C   0  0
    3.0410   -2.0550    1.3890 C   0  0
   -3.0700    0.1850    0.4430 C   0  0
   -2.4040    1.2070    1.0780 C   0  0
    4.3950   -2.4300    1.2760 O   0  0
   -4.4770    0.1930    0.3050 C   0  0
   -3.1000    2.3120    1.6250 C   0  0
   -5.1990    1.2930    0.8400 C   0  0
   -4.5120    2.3500    1.5000 C   0  0
    0.6640    1.3730   -3.8910 H   0  0
    2.1820   -2.6700   -3.7270 H   0  0
    0.1250    1.2620   -1.4840 H   0  0
    1.6450   -2.7700   -1.3200 H   0  0
    0.4770   -1.8730    0.5080 H   0  0
    1.5820    1.7340    0.1060 H   0  0
    2.2400    1.7460    1.7230 H   0  0
    3.1620   -0.5570   -0.1780 H   0  0
    3.5920    0.0450    1.3990 H   0  0
   -2.2680   -1.5840   -0.4510 H   0  0
   -0.0740    2.8790    1.4770 H   0  0
    0.0610    1.6930    2.7640 H   0  0
    2.7580   -2.1190    2.4380 H   0  0
    2.4470   -2.7380    0.7810 H   0  0
    4.4670   -3.3400    1.6020 H   0  0
   -4.9920   -0.6130   -0.1950 H   0  0
   -2.5740    3.1130    2.1270 H   0  0
   -6.2740    1.3260    0.7460 H   0  0
   -5.0680    3.1820    1.9060 H   0  0
  1  2  1  0
  2  3  2  0
  2  4  1  0
  3  5  1  0
  4  6  2  0
  5  7  2  0
  8  7  1  0
  8  9  1  0
  8 10  1  0
  9 11  1  0
  9 12  1  0
 10 13  1  0
 10 14  2  0
 11 15  1  0
 12 16  1  0
 13 17  1  0
 14 18  1  0
 16 19  1  0
 17 20  1  0
 18 21  1  0
 20 22  2  0
 21 23  2  0
  6  7  1  0
 14 15  1  0
 17 18  2  0
 22 23  1  0
  3 24  1  0
  4 25  1  0
  5 26  1  0
  6 27  1  0
  8 28  1  0
 11 29  1  0
 11 30  1  0
 12 31  1  0
 12 32  1  0
 13 33  1  0
 15 34  1  0
 15 35  1  0
 16 36  1  0
 16 37  1  0
 19 38  1  0
 20 39  1  0
 21 40  1  0
 22 41  1  0
 23 42  1  0
M  END
> <Name>
CHEMBL3622992

> <IC50 nM>
31622.8

> <Molecule_ChEMBL_ID>
CHEMBL3622992

> <Smiles>
OCCN1CCc2c([nH]c3ccccc23)C1c1ccc(Cl)cc1

$$$$
CHEMBL3126947
  SciTegic08162514323D

 52 54  0  0  1  0            999 V2000
    1.5450    4.6290    0.3220 S   0  0
    2.3050    4.6100    1.5600 O   0  0
    0.1170    4.7990    0.5310 O   0  0
    1.7990    3.1310   -0.4940 C   0  0
    2.1430    5.9670   -0.7010 C   0  0
    1.9180    1.9420    0.2460 C   0  0
    1.8870    3.1020   -1.8970 C   0  0
    2.1270    0.7190   -0.4180 C   0  0
    2.0940    1.8810   -2.5610 C   0  0
    2.2130    0.6900   -1.8220 C   0  0
    2.2540   -0.5390    0.3610 C   0  0
    1.5200   -1.6970   -0.3180 C   0  0
    1.8300   -0.3460    1.8160 C   0  0
    3.7720   -0.6230    0.1930 C   0  0
    0.0000   -1.5390   -0.2740 C   0  0  1  0  0  0
   -0.3050   -0.1660   -0.3650 O   0  0
   -0.5470   -2.2340   -1.5220 C   0  0
   -0.6130   -2.0800    1.0170 C   0  0
   -1.8950   -2.0040   -1.6190 F   0  0
   -0.3180   -3.5820   -1.4320 F   0  0
    0.0840   -1.7380   -2.6330 F   0  0
   -2.1250   -2.1030    0.9410 C   0  0
   -2.8830   -3.2690    0.8100 N   0  0
   -3.0250   -1.0330    0.9780 C   0  0
   -4.1990   -2.8570    0.7770 C   0  0
   -4.3130   -1.4750    0.8810 C   0  0
   -5.4120   -3.5720    0.6580 C   0  0
   -5.5260   -0.8010    0.8730 N   0  0
   -6.6560   -2.9650    0.6440 N   0  0
   -6.6820   -1.5740    0.7540 C   0  0
    1.5940    6.0960   -1.6350 H   0  0
    3.1890    5.7950   -0.9510 H   0  0
    2.0800    6.9050   -0.1470 H   0  0
    1.8520    1.9710    1.3240 H   0  0
    1.7950    4.0160   -2.4650 H   0  0
    2.1620    1.8560   -3.6390 H   0  0
    2.3730   -0.2460   -2.3380 H   0  0
    1.8200   -2.6500    0.1170 H   0  0
    1.8650   -1.8240   -1.3440 H   0  0
    2.5550    0.2460    2.3750 H   0  0
    1.7270   -1.3070    2.3200 H   0  0
    0.8690    0.1660    1.8730 H   0  0
    4.2520    0.2680    0.5940 H   0  0
    4.1660   -1.5020    0.7030 H   0  0
    4.0390   -0.7010   -0.8610 H   0  0
   -0.6090    0.1190    0.5100 H   0  0
   -0.3030   -1.4780    1.8730 H   0  0
   -0.2440   -3.0840    1.2280 H   0  0
   -2.5430   -4.2010    0.7560 H   0  0
   -2.7340    0.0060    1.0760 H   0  0
   -5.3710   -4.6480    0.5760 H   0  0
   -7.6390   -1.0720    0.7460 H   0  0
  1  2  2  0
  1  3  2  0
  1  4  1  0
  1  5  1  0
  4  6  2  0
  4  7  1  0
  6  8  1  0
  7  9  2  0
  8 10  2  0
  8 11  1  0
 11 12  1  0
 11 13  1  0
 11 14  1  0
 12 15  1  0
 15 16  1  0
 15 17  1  0
 15 18  1  0
 17 19  1  0
 17 20  1  0
 17 21  1  0
 18 22  1  0
 22 23  1  0
 22 24  2  0
 23 25  1  0
 24 26  1  0
 25 27  1  0
 26 28  1  0
 27 29  2  0
 28 30  2  0
  9 10  1  0
 25 26  2  0
 29 30  1  0
  5 31  1  0
  5 32  1  0
  5 33  1  0
  6 34  1  0
  7 35  1  0
  9 36  1  0
 10 37  1  0
 12 38  1  0
 12 39  1  0
 13 40  1  0
 13 41  1  0
 13 42  1  0
 14 43  1  0
 14 44  1  0
 14 45  1  0
 16 46  1  0
 18 47  1  0
 18 48  1  0
 23 49  1  0
 24 50  1  0
 27 51  1  0
 30 52  1  0
M  END
> <Name>
CHEMBL3126947

> <IC50 nM>
840

> <Molecule_ChEMBL_ID>
CHEMBL3126947

> <Smiles>
CC(C)(CC(O)(Cc1cc2ncncc2[nH]1)C(F)(F)F)c1cccc(S(C)(=O)=O)c1

$$$$
CHEMBL2419295
  SciTegic08162514323D

 46 49  0  0  1  0            999 V2000
   -1.8110   -3.3830   -4.3870 F   0  0
   -1.1370   -2.8630   -3.3630 C   0  0
   -1.0250   -1.4690   -3.2300 C   0  0
   -0.5370   -3.7090   -2.4140 C   0  0
   -0.3150   -0.9200   -2.1480 C   0  0
    0.1740   -3.1600   -1.3320 C   0  0
    0.2850   -1.7660   -1.1970 C   0  0
    1.0410   -1.1820   -0.0470 C   0  0
    2.2210   -1.7910    0.5590 C   0  0
    0.7520   -0.0310    0.5880 C   0  0
    2.7690   -2.8260    0.2580 O   0  0
    2.6250   -0.9410    1.5940 N   0  0
   -0.3770    0.8690    0.2740 C   0  0
    1.7540    0.2340    1.6970 C   0  0  1  0  0  0
    3.7680   -1.1760    2.4750 C   0  0
   -1.7030    0.3810    0.3360 C   0  0
   -0.1250    2.2130   -0.0900 C   0  0
    2.5180    1.5390    1.5020 C   0  0
    5.1020   -1.0530    1.7380 C   0  0
   -2.7930    1.2420    0.0390 C   0  0
   -1.2050    3.0760   -0.3830 C   0  0
   -4.0670    0.7830    0.0740 N   0  0
   -2.5370    2.6000   -0.3120 C   0  0
   -5.1410    1.6350   -0.0550 C   0  0
   -3.5530    3.4430   -0.5900 O   0  0
   -6.2700    1.1990   -0.0590 O   0  0
   -4.8910    3.1270   -0.1850 C   0  0
   -1.4840   -0.8140   -3.9570 H   0  0
   -0.6210   -4.7810   -2.5120 H   0  0
   -0.2340    0.1540   -2.0550 H   0  0
    0.6310   -3.8180   -0.6070 H   0  0
    1.2540    0.2270    2.6560 H   0  0
    3.7250   -0.4820    3.3150 H   0  0
    3.6720   -2.1560    2.9400 H   0  0
   -1.8810   -0.6500    0.6110 H   0  0
    0.8870    2.5860   -0.1420 H   0  0
    3.3810    1.6080    2.1640 H   0  0
    1.8730    2.3970    1.7030 H   0  0
    2.8770    1.6250    0.4770 H   0  0
    5.9360   -1.2010    2.4240 H   0  0
    5.1680   -1.7850    0.9340 H   0  0
    5.2090   -0.0620    1.2950 H   0  0
   -1.0120    4.1020   -0.6620 H   0  0
   -4.2460   -0.1950    0.1910 H   0  0
   -5.5840    3.5760   -0.8980 H   0  0
   -5.0690    3.5980    0.7810 H   0  0
  1  2  1  0
  2  3  2  0
  2  4  1  0
  3  5  1  0
  4  6  2  0
  5  7  2  0
  7  8  1  0
  8  9  1  0
  8 10  2  0
  9 11  2  0
  9 12  1  0
 10 13  1  0
 10 14  1  0
 12 15  1  0
 13 16  2  0
 13 17  1  0
 14 18  1  0
 15 19  1  0
 16 20  1  0
 17 21  2  0
 20 22  1  0
 20 23  2  0
 22 24  1  0
 23 25  1  0
 24 26  2  0
 24 27  1  0
  6  7  1  0
 12 14  1  0
 21 23  1  0
 25 27  1  0
  3 28  1  0
  4 29  1  0
  5 30  1  0
  6 31  1  0
 14 32  1  0
 15 33  1  0
 15 34  1  0
 16 35  1  0
 17 36  1  0
 18 37  1  0
 18 38  1  0
 18 39  1  0
 19 40  1  0
 19 41  1  0
 19 42  1  0
 21 43  1  0
 22 44  1  0
 27 45  1  0
 27 46  1  0
M  END
> <Name>
CHEMBL2419295

> <IC50 nM>
1600

> <Molecule_ChEMBL_ID>
CHEMBL2419295

> <Smiles>
CCN1C(=O)C(c2ccc(F)cc2)=C(c2ccc3c(c2)NC(=O)CO3)C1C

$$$$
CHEMBL3093444
  SciTegic08162514323D

 45 47  0  0  0  0            999 V2000
    3.3870   -3.2680   -2.1130 Cl  0  0
    2.5510   -4.0800   -0.8540 C   0  0
    1.8850   -3.3520    0.1540 C   0  0
    2.5310   -5.4860   -0.8280 C   0  0
    1.9080   -1.6190    0.1310 S   0  0
    1.2030   -4.0330    1.1820 C   0  0
    1.8520   -6.1680    0.1970 C   0  0
    2.0960   -1.1840   -1.2420 O   0  0
    2.9570   -1.1620    1.0250 O   0  0
    0.4450   -0.8550    0.6820 N   0  0
    0.5530   -3.3360    2.1680 N   0  0
    1.1860   -5.4390    1.1990 C   0  0
    1.8320   -7.8810    0.2250 Cl  0  0
    0.3420    0.5900    0.5620 C   0  0
    0.0370    0.9860   -0.8830 C   0  0
    1.6030    1.2620    1.1050 C   0  0
   -0.8630    0.7600    1.4880 C   0  0
   -0.3930    2.4380   -0.9750 C   0  0
   -1.6520    2.9280   -1.0100 C   0  0
    0.4530    3.5610   -1.0390 C   0  0
   -1.6780    4.2970   -1.0940 C   0  0
   -2.8520    2.1740   -0.9710 C   0  0
   -0.3590    4.7210   -1.1130 N   0  0
   -2.8970    5.0160   -1.1450 C   0  0
   -4.0880    2.8650   -1.0180 C   0  0
   -4.1110    4.2830   -1.1060 C   0  0
    3.0430   -6.0470   -1.6000 H   0  0
   -0.3630   -1.2750    0.2030 H   0  0
    0.7440   -2.3710    2.3500 H   0  0
   -0.1370   -3.7930    2.7300 H   0  0
    0.6620   -5.9710    1.9840 H   0  0
   -0.7420    0.3500   -1.3010 H   0  0
    0.9080    0.8260   -1.5180 H   0  0
    1.8890    0.8630    2.0780 H   0  0
    1.4490    2.3360    1.2170 H   0  0
    2.4430    1.1150    0.4260 H   0  0
   -0.6560    0.3360    2.4710 H   0  0
   -1.1150    1.8150    1.6020 H   0  0
   -1.7360    0.2500    1.0800 H   0  0
    1.5350    3.5800   -1.0350 H   0  0
   -2.8340    1.0940   -0.9040 H   0  0
   -0.0370    5.6600   -1.1700 H   0  0
   -2.9060    6.0940   -1.2110 H   0  0
   -5.0160    2.3130   -0.9880 H   0  0
   -5.0570    4.8070   -1.1410 H   0  0
  1  2  1  0
  2  3  2  0
  2  4  1  0
  3  5  1  0
  3  6  1  0
  4  7  2  0
  5  8  2  0
  5  9  2  0
  5 10  1  0
  6 11  1  0
  6 12  2  0
  7 13  1  0
 10 14  1  0
 14 15  1  0
 14 16  1  0
 14 17  1  0
 15 18  1  0
 18 19  1  0
 18 20  2  0
 19 21  1  0
 19 22  2  0
 20 23  1  0
 21 24  2  0
 22 25  1  0
 24 26  1  0
  7 12  1  0
 21 23  1  0
 25 26  2  0
  4 27  1  0
 10 28  1  0
 11 29  1  0
 11 30  1  0
 12 31  1  0
 15 32  1  0
 15 33  1  0
 16 34  1  0
 16 35  1  0
 16 36  1  0
 17 37  1  0
 17 38  1  0
 17 39  1  0
 20 40  1  0
 22 41  1  0
 23 42  1  0
 24 43  1  0
 25 44  1  0
 26 45  1  0
M  END
> <Name>
CHEMBL3093444

> <IC50 nM>
2000

> <Molecule_ChEMBL_ID>
CHEMBL3093444

> <Smiles>
CC(C)(Cc1c[nH]c2ccccc12)NS(=O)(=O)c1c(N)cc(Cl)cc1Cl

$$$$
CHEMBL3093460
  SciTegic08162514323D

 46 47  0  0  1  0            999 V2000
   -0.6170    0.4900    0.0240 S   0  0
    0.1970   -0.6900   -0.2150 O   0  0
   -1.8380    0.2030    0.7580 O   0  0
    0.3280    1.5290    1.0490 N   0  0
   -1.0510    1.1680   -1.5080 C   0  0
    0.5960    1.0860    2.4060 C   0  0  2  0  0  0
   -2.2990    0.8630   -2.0840 C   0  0
   -0.1560    2.0250   -2.1760 C   0  0
    1.4630    2.1070    3.1430 C   0  0
    1.2090   -0.3150    2.4030 C   0  0
   -2.6480    1.4180   -3.3280 C   0  0
   -3.2500   -0.0390   -1.3830 C   0  0
   -0.5100    2.5760   -3.4200 C   0  0
    1.1640    2.3500   -1.5720 C   0  0
    0.8220    3.3180    3.1640 F   0  0
    2.6640    2.2360    2.4960 F   0  0
    1.6780    1.6820    4.4280 F   0  0
   -0.0350   -1.5450    2.3970 S   0  0
   -1.7560    2.2730   -3.9960 C   0  0
    0.8630   -2.9770    2.3970 C   0  0
   -2.1270    2.8550   -5.3100 C   0  0
    0.2250   -4.2330    2.3970 C   0  0
    2.2720   -2.9490    2.3970 C   0  0
    0.9670   -5.4260    2.3970 C   0  0
    3.0230   -4.1370    2.3970 C   0  0
    2.3690   -5.3790    2.3970 C   0  0
   -0.1110    2.4590    1.0960 H   0  0
   -0.4120    1.0620    2.8240 H   0  0
    1.8550   -0.4550    3.2680 H   0  0
    1.8550   -0.4490    1.5350 H   0  0
   -3.6070    1.1840   -3.7710 H   0  0
   -2.7950   -0.9470   -0.9840 H   0  0
   -4.0410   -0.3380   -2.0700 H   0  0
   -3.7130    0.4940   -0.5530 H   0  0
    0.1780    3.2340   -3.9330 H   0  0
    1.8930    2.7520   -2.2770 H   0  0
    1.5920    1.4510   -1.1270 H   0  0
    1.0290    3.0840   -0.7770 H   0  0
   -1.3220    3.5020   -5.6640 H   0  0
   -2.3630    2.0550   -6.0120 H   0  0
   -3.0220    3.4710   -5.1970 H   0  0
   -0.8540   -4.2810    2.3970 H   0  0
    2.7850   -2.0000    2.3970 H   0  0
    0.4570   -6.3790    2.3970 H   0  0
    4.1020   -4.0960    2.3970 H   0  0
    2.9410   -6.2950    2.3970 H   0  0
  1  2  2  0
  1  3  2  0
  1  4  1  0
  1  5  1  0
  6  4  1  0
  5  7  2  0
  5  8  1  0
  6  9  1  0
  6 10  1  0
  7 11  1  0
  7 12  1  0
  8 13  2  0
  8 14  1  0
  9 15  1  0
  9 16  1  0
  9 17  1  0
 10 18  1  0
 11 19  2  0
 18 20  1  0
 19 21  1  0
 20 22  2  0
 20 23  1  0
 22 24  1  0
 23 25  2  0
 24 26  2  0
 13 19  1  0
 25 26  1  0
  4 27  1  0
  6 28  1  0
 10 29  1  0
 10 30  1  0
 11 31  1  0
 12 32  1  0
 12 33  1  0
 12 34  1  0
 13 35  1  0
 14 36  1  0
 14 37  1  0
 14 38  1  0
 21 39  1  0
 21 40  1  0
 21 41  1  0
 22 42  1  0
 23 43  1  0
 24 44  1  0
 25 45  1  0
 26 46  1  0
M  END
> <Name>
CHEMBL3093460

> <IC50 nM>
10000

> <Molecule_ChEMBL_ID>
CHEMBL3093460

> <Smiles>
Cc1cc(C)c(S(=O)(=O)NC(CSc2ccccc2)C(F)(F)F)c(C)c1

$$$$
CHEMBL1917247
  SciTegic08162514323D

 69 74  0  0  1  0            999 V2000
    3.3110   -1.3200    1.5000 Cl  0  0
    2.9490   -0.2680    0.0680 C   0  0  2  0  0  0
    4.3540    0.2400   -0.4650 C   0  0  2  0  0  0
    1.8730    0.7830    0.5880 C   0  0  1  0  0  0
    2.2770   -1.1230   -1.0650 C   0  0  2  0  0  0
    5.1450   -0.9670   -1.0240 C   0  0
    5.1910    1.0270    0.5530 C   0  0
    4.1410    1.2170   -1.6290 C   0  0
    2.4280    1.9800    1.0820 O   0  0
    0.7710    1.1600   -0.4320 C   0  0
    0.8070   -1.3670   -0.7030 C   0  0  1  0  0  0
    3.0840   -2.3540   -1.4840 C   0  0
    6.4180   -1.2420   -0.6680 C   0  0
    4.4530   -1.8970   -2.0020 C   0  0
    6.4530    0.7150    0.9000 C   0  0
    0.0410   -0.0660   -1.0370 C   0  0  1  0  0  0
   -0.0590   -2.4340   -1.3590 C   0  0
    7.1450   -0.4240    0.3010 C   0  0
   -1.3650   -0.4690   -0.5370 C   0  0  1  0  0  0
   -0.0740    0.1350   -2.5610 C   0  0
   -1.4860   -1.9300   -1.0680 C   0  0  2  0  0  0
    8.2870   -0.6840    0.6020 O   0  0
   -1.3980   -0.4360    0.8810 O   0  0
   -2.4810    0.4340   -1.0100 C   0  0
   -2.2360   -2.9000   -0.1520 C   0  0
   -2.2460    1.5330   -1.4570 O   0  0
   -3.8950   -0.0760   -0.9100 C   0  0
   -5.0100    1.2300   -1.2460 S   0  0
   -5.2620    1.9020    0.2830 C   0  0
   -4.6660    3.2480    1.2190 S   0  0
   -6.2290    1.1150    0.9430 N   0  0
   -5.6950    2.7190    2.3980 C   0  0
   -6.4810    1.6070    2.1950 C   0  0
   -5.7890    3.3980    3.6410 C   0  0
   -7.3770    1.1130    3.1740 C   0  0
   -6.6740    2.9380    4.6460 C   0  0
   -7.4710    1.7910    4.4120 C   0  0
    1.3240    0.3750    1.4370 H   0  0
    2.2730   -0.5160   -1.9690 H   0  0
    4.7950    1.8980    1.0470 H   0  0
    5.0660    1.7110   -1.9200 H   0  0
    3.4220    1.9880   -1.3570 H   0  0
    3.7520    0.6930   -2.5040 H   0  0
    2.8420    1.7730    1.9360 H   0  0
    1.2420    1.7380   -1.2310 H   0  0
    0.0410    1.8320    0.0190 H   0  0
    0.7680   -1.5880    0.3530 H   0  0
    3.1930   -3.0630   -0.6640 H   0  0
    2.5640   -2.8910   -2.2790 H   0  0
    6.9280   -2.0920   -1.1020 H   0  0
    4.3320   -1.3750   -2.9510 H   0  0
    5.0680   -2.7740   -2.2130 H   0  0
    6.9670    1.3180    1.6330 H   0  0
    0.1270   -2.4810   -2.4240 H   0  0
    0.1430   -3.4160   -0.9530 H   0  0
    0.8950    0.0660   -3.0550 H   0  0
   -0.4960    1.1150   -2.7890 H   0  0
   -0.7290   -0.6190   -3.0000 H   0  0
   -2.0140   -1.9200   -2.0120 H   0  0
   -2.2730   -0.7480    1.1560 H   0  0
   -2.2770   -3.8950   -0.5980 H   0  0
   -1.7480   -2.9650    0.8200 H   0  0
   -3.2600   -2.5650    0.0100 H   0  0
   -4.0780   -0.4630    0.0920 H   0  0
   -4.0510   -0.8790   -1.6290 H   0  0
   -5.1840    4.2730    3.8220 H   0  0
   -7.9810    0.2380    2.9820 H   0  0
   -6.7400    3.4590    5.5900 H   0  0
   -8.1470    1.4360    5.1760 H   0  0
  2  1  1  0
  2  3  1  0
  2  4  1  0
  2  5  1  0
  3  6  1  0
  3  7  1  0
  3  8  1  0
  4  9  1  0
  4 10  1  0
  5 11  1  0
  5 12  1  0
  6 13  2  0
  6 14  1  0
  7 15  2  0
 10 16  1  0
 11 17  1  0
 13 18  1  0
 16 19  1  0
 16 20  1  0
 17 21  1  0
 18 22  2  0
 19 23  1  0
 19 24  1  0
 21 25  1  0
 24 26  2  0
 24 27  1  0
 27 28  1  0
 28 29  1  0
 29 30  1  0
 29 31  2  0
 30 32  1  0
 31 33  1  0
 32 34  1  0
 33 35  1  0
 34 36  2  0
 35 37  2  0
 11 16  1  0
 12 14  1  0
 15 18  1  0
 19 21  1  0
 32 33  2  0
 36 37  1  0
  4 38  1  0
  5 39  1  0
  7 40  1  0
  8 41  1  0
  8 42  1  0
  8 43  1  0
  9 44  1  0
 10 45  1  0
 10 46  1  0
 11 47  1  0
 12 48  1  0
 12 49  1  0
 13 50  1  0
 14 51  1  0
 14 52  1  0
 15 53  1  0
 17 54  1  0
 17 55  1  0
 20 56  1  0
 20 57  1  0
 20 58  1  0
 21 59  1  0
 23 60  1  0
 25 61  1  0
 25 62  1  0
 25 63  1  0
 27 64  1  0
 27 65  1  0
 34 66  1  0
 35 67  1  0
 36 68  1  0
 37 69  1  0
M  END
> <Name>
CHEMBL1917247

> <IC50 nM>
17

> <Molecule_ChEMBL_ID>
CHEMBL1917247

> <Smiles>
C[C@@H]1C[C@H]2[C@@H]3CCC4=CC(=O)C=C[C@]4(C)[C@@]3(Cl)[C@@H](O)C[C@]2(C)[C@@]1(O)C(=O)CSc1nc2ccccc2s1

$$$$
CHEMBL3094484
  SciTegic08162514323D

 55 56  0  0  1  0            999 V2000
    1.7520   -1.0000   -0.0200 S   0  0
    2.6090   -1.9710    0.6390 O   0  0
    1.4400   -1.3520   -1.3950 O   0  0
    0.2400   -1.0330    0.8400 N   0  0
    2.5610    0.5270   -0.0200 C   0  0
   -0.5390   -2.2600    0.8030 C   0  0  2  0  0  0
    3.9690    0.5760   -0.0200 C   0  0
    1.8130    1.7190   -0.0200 C   0  0
   -1.9530   -2.0120    1.3260 C   0  0
    0.1840   -3.3750    1.5610 C   0  0
    4.6250    1.8200   -0.0200 C   0  0
    4.7660   -0.6780   -0.0200 C   0  0
    2.4730    2.9610   -0.0200 C   0  0
    0.3260    1.6740   -0.0200 C   0  0
   -2.6820   -1.0240    0.4900 C   0  0
    0.7320   -4.4590    0.6310 C   0  0
    3.8790    3.0120   -0.0200 C   0  0
   -2.8140    0.3060    0.9260 C   0  0
   -3.2360   -1.4160   -0.7400 C   0  0
    4.5740    4.3260   -0.0200 C   0  0
   -3.5040    1.2420    0.1350 C   0  0
   -3.9260   -0.4810   -1.5330 C   0  0
   -4.0610    0.8530   -1.0980 C   0  0
   -3.6370    2.6460    0.6090 C   0  0
   -4.5100   -0.9080   -2.8320 C   0  0
   -4.7070    1.7300   -1.8420 O   0  0
    0.4000   -0.7830    1.8260 H   0  0
   -0.5550   -2.4690   -0.2660 H   0  0
   -1.9280   -1.6640    2.3590 H   0  0
   -2.5200   -2.9440    1.3630 H   0  0
    0.9770   -2.9670    2.1860 H   0  0
   -0.4670   -3.8110    2.3180 H   0  0
    5.7050    1.8590   -0.0200 H   0  0
    4.4160   -1.4300   -0.7290 H   0  0
    4.7440   -1.1230    0.9750 H   0  0
    5.8030   -0.4490   -0.2600 H   0  0
    1.8990    3.8770   -0.0200 H   0  0
   -0.1000    0.9280   -0.6910 H   0  0
   -0.0660    2.6460   -0.3130 H   0  0
   -0.0290    1.4590    0.9880 H   0  0
    1.2950   -5.2010    1.1970 H   0  0
   -0.0780   -4.9570    0.1000 H   0  0
    1.4020   -4.0280   -0.1110 H   0  0
   -2.3890    0.6090    1.8730 H   0  0
   -3.1350   -2.4380   -1.0780 H   0  0
    3.9060    5.1870   -0.0200 H   0  0
    5.2130    4.3980   -0.9000 H   0  0
    5.2130    4.3980    0.8610 H   0  0
   -4.1860    3.2990   -0.0700 H   0  0
   -2.6460    3.0760    0.7560 H   0  0
   -4.1520    2.6580    1.5700 H   0  0
   -4.3480   -1.9590   -3.0720 H   0  0
   -4.0800   -0.3130   -3.6390 H   0  0
   -5.5840   -0.7310   -2.8240 H   0  0
   -5.0860    1.4490   -2.6860 H   0  0
  1  2  2  0
  1  3  2  0
  1  4  1  0
  1  5  1  0
  6  4  1  0
  5  7  2  0
  5  8  1  0
  6  9  1  0
  6 10  1  0
  7 11  1  0
  7 12  1  0
  8 13  2  0
  8 14  1  0
  9 15  1  0
 10 16  1  0
 11 17  2  0
 15 18  2  0
 15 19  1  0
 17 20  1  0
 18 21  1  0
 19 22  2  0
 21 23  2  0
 21 24  1  0
 22 25  1  0
 23 26  1  0
 13 17  1  0
 22 23  1  0
  4 27  1  0
  6 28  1  0
  9 29  1  0
  9 30  1  0
 10 31  1  0
 10 32  1  0
 11 33  1  0
 12 34  1  0
 12 35  1  0
 12 36  1  0
 13 37  1  0
 14 38  1  0
 14 39  1  0
 14 40  1  0
 16 41  1  0
 16 42  1  0
 16 43  1  0
 18 44  1  0
 19 45  1  0
 20 46  1  0
 20 47  1  0
 20 48  1  0
 24 49  1  0
 24 50  1  0
 24 51  1  0
 25 52  1  0
 25 53  1  0
 25 54  1  0
 26 55  1  0
M  END
> <Name>
CHEMBL3094484

> <IC50 nM>
89

> <Molecule_ChEMBL_ID>
CHEMBL3094484

> <Smiles>
CCC(Cc1cc(C)c(O)c(C)c1)NS(=O)(=O)c1c(C)cc(C)cc1C

$$$$
CHEMBL3094471
  SciTegic08162514323D

 51 52  0  0  1  0            999 V2000
   -0.1700   -1.3950    1.0510 S   0  0
   -0.7790   -2.6970    1.2500 O   0  0
    1.2560   -1.3810    1.3280 O   0  0
   -0.3320   -1.0430   -0.6470 N   0  0
   -0.9410   -0.2660    2.1090 C   0  0
    0.3670   -1.8980   -1.5900 C   0  0  2  0  0  0
   -1.4940   -0.7090    3.3260 C   0  0
   -1.0160    1.0940    1.7540 C   0  0
    0.3750   -1.2660   -2.9810 C   0  0
   -0.2330   -3.3050   -1.5840 C   0  0
   -2.1210    0.2110    4.1850 C   0  0
   -1.4180   -2.1450    3.7090 C   0  0
   -1.6430    2.0100    2.6170 C   0  0
   -0.4340    1.5680    0.4710 C   0  0
    1.0700    0.0470   -2.9810 C   0  0
    0.6990   -4.3420   -0.9550 C   0  0
   -2.1950    1.5680    3.8320 C   0  0
    0.3260    1.2400   -2.9810 C   0  0
    2.4770    0.1000   -2.9810 C   0  0
   -2.8590    2.5390    4.7420 C   0  0
    0.9840    2.4810   -2.9810 C   0  0
    3.1350    1.3420   -2.9810 C   0  0
    2.3890    2.5330   -2.9810 C   0  0
    3.0860    3.8480   -2.9810 C   0  0
   -1.3300   -1.0330   -0.9010 H   0  0
    1.3690   -1.9060   -1.1640 H   0  0
   -0.6430   -1.1390   -3.3520 H   0  0
    0.8510   -1.9300   -3.7030 H   0  0
   -1.2030   -3.3090   -1.0880 H   0  0
   -0.5200   -3.6050   -2.5920 H   0  0
   -2.5450   -0.1290    5.1210 H   0  0
   -0.4410   -2.6000    3.5510 H   0  0
   -2.1490   -2.7130    3.1310 H   0  0
   -1.6720   -2.2520    4.7640 H   0  0
   -1.7010    3.0550    2.3440 H   0  0
    0.5410    1.1410    0.2340 H   0  0
   -0.3260    2.6520    0.5000 H   0  0
   -1.1110    1.3220   -0.3480 H   0  0
    0.2210   -5.3220   -0.9260 H   0  0
    1.6290   -4.4160   -1.5180 H   0  0
    0.9490   -4.0640    0.0680 H   0  0
   -0.7540    1.2070   -2.9810 H   0  0
    3.0550   -0.8120   -2.9810 H   0  0
   -2.8630    3.5660    4.3770 H   0  0
   -2.3560    2.5330    5.7090 H   0  0
   -3.8950    2.2380    4.9040 H   0  0
    0.4040    3.3930   -2.9810 H   0  0
    4.2150    1.3750   -2.9810 H   0  0
    4.1740    3.7790   -2.9810 H   0  0
    2.7870    4.4160   -2.1000 H   0  0
    2.7870    4.4160   -3.8620 H   0  0
  1  2  2  0
  1  3  2  0
  1  4  1  0
  1  5  1  0
  6  4  1  0
  5  7  2  0
  5  8  1  0
  6  9  1  0
  6 10  1  0
  7 11  1  0
  7 12  1  0
  8 13  2  0
  8 14  1  0
  9 15  1  0
 10 16  1  0
 11 17  2  0
 15 18  2  0
 15 19  1  0
 17 20  1  0
 18 21  1  0
 19 22  2  0
 21 23  2  0
 23 24  1  0
 13 17  1  0
 22 23  1  0
  4 25  1  0
  6 26  1  0
  9 27  1  0
  9 28  1  0
 10 29  1  0
 10 30  1  0
 11 31  1  0
 12 32  1  0
 12 33  1  0
 12 34  1  0
 13 35  1  0
 14 36  1  0
 14 37  1  0
 14 38  1  0
 16 39  1  0
 16 40  1  0
 16 41  1  0
 18 42  1  0
 19 43  1  0
 20 44  1  0
 20 45  1  0
 20 46  1  0
 21 47  1  0
 22 48  1  0
 24 49  1  0
 24 50  1  0
 24 51  1  0
M  END
> <Name>
CHEMBL3094471

> <IC50 nM>
10000

> <Molecule_ChEMBL_ID>
CHEMBL3094471

> <Smiles>
CCC(Cc1ccc(C)cc1)NS(=O)(=O)c1c(C)cc(C)cc1C

$$$$
CHEMBL221545
  SciTegic08162514323D

 71 75  0  0  1  0            999 V2000
   -6.0350   -2.6330   -0.0230 O   0  0
   -4.8380   -2.4800   -0.0820 C   0  0
   -4.0060   -2.5900    1.1230 C   0  0
   -4.1450   -2.1720   -1.3810 C   0  0
   -2.7290   -2.1500    1.1620 C   0  0
   -2.9710   -1.1930   -1.2170 C   0  0
   -2.0960   -1.4510    0.0080 C   0  0
   -1.9260   -2.3710    2.4240 C   0  0
   -0.7990   -1.0330    0.0610 C   0  0
   -0.4450   -2.5450    2.0960 C   0  0
   -0.1500   -0.2070   -1.0530 C   0  0  1  0  0  0
    0.0740   -1.3550    1.2730 C   0  0  1  0  0  0
   -0.4080    1.2460   -0.8400 C   0  0
    1.3530   -0.5040   -1.2680 C   0  0
    1.5330   -1.6580    0.8910 C   0  0  1  0  0  0
    0.0820    2.1920   -1.7580 C   0  0
   -1.1430    1.6740    0.2790 C   0  0
    2.1580   -0.5410    0.0430 C   0  0  1  0  0  0
    2.5390   -1.8030    2.0370 C   0  0
   -0.1620    3.5630   -1.5610 C   0  0
   -1.3890    3.0430    0.4820 C   0  0
    3.6410   -1.0020   -0.0120 C   0  0  2  0  0  0
    2.0700    0.8030    0.7930 C   0  0
    3.8980   -1.3890    1.4570 C   0  0
    0.3010    4.4440   -2.4240 O   0  0
   -0.8990    3.9880   -0.4370 C   0  0
   -2.0780    3.4380    1.5330 O   0  0
    4.4980    0.0570   -0.4040 O   0  0
    3.8750   -2.1370   -0.9160 C   0  0
    1.0370    3.9610   -3.5390 C   0  0
   -1.1270    5.2740   -0.2500 O   0  0
   -2.6490    2.4420    2.3690 C   0  0
    4.0760   -3.0550   -1.6460 C   0  0
   -1.8730    5.6560    0.8970 C   0  0
    4.3240   -4.1800   -2.5450 C   0  0
   -4.4380   -3.0450    2.0020 H   0  0
   -4.8610   -1.7750   -2.1020 H   0  0
   -3.7790   -3.1110   -1.7990 H   0  0
   -2.3990   -1.2660   -2.1390 H   0  0
   -3.3520   -0.1760   -1.1620 H   0  0
   -2.0630   -1.5180    3.0880 H   0  0
   -2.2870   -3.2500    2.9610 H   0  0
    0.1190   -2.6480    3.0220 H   0  0
   -0.3070   -3.4750    1.5430 H   0  0
   -0.6000   -0.4340   -2.0140 H   0  0
    0.0600   -0.4760    1.9240 H   0  0
    1.4260   -1.4710   -1.7680 H   0  0
    1.7970    0.2150   -1.9570 H   0  0
    1.5390   -2.5800    0.3200 H   0  0
    0.6460    1.8670   -2.6210 H   0  0
   -1.5220    0.9510    0.9880 H   0  0
    2.5530   -2.8140    2.4180 H   0  0
    2.2750   -1.1540    2.8570 H   0  0
    1.0510    1.0310    1.1020 H   0  0
    2.4200    1.6190    0.1620 H   0  0
    2.6930    0.7850    1.6880 H   0  0
    4.2710   -0.5470    2.0250 H   0  0
    4.6390   -2.1740    1.5680 H   0  0
    4.1620    0.4020   -1.2480 H   0  0
    1.4080    4.7070   -4.2400 H   0  0
    0.4020    3.2700   -4.0940 H   0  0
    1.8930    3.3990   -3.1640 H   0  0
   -3.1620    2.9400    3.1930 H   0  0
   -3.2580    1.7830    1.7500 H   0  0
   -1.8400    1.8480    2.7930 H   0  0
   -2.0510    6.7230    1.0290 H   0  0
   -1.3520    5.2910    1.7810 H   0  0
   -2.8440    5.1600    0.8520 H   0  0
    5.3930   -4.3770   -2.6150 H   0  0
    3.9450   -3.9570   -3.5430 H   0  0
    3.8280   -5.0760   -2.1760 H   0  0
  1  2  2  0
  2  3  1  0
  2  4  1  0
  3  5  2  0
  4  6  1  0
  5  7  1  0
  5  8  1  0
  7  9  2  0
  8 10  1  0
  9 11  1  0
  9 12  1  0
 11 13  1  0
 11 14  1  0
 12 15  1  0
 13 16  2  0
 13 17  1  0
 14 18  1  0
 15 19  1  0
 16 20  1  0
 17 21  2  0
 18 22  1  0
 18 23  1  0
 19 24  1  0
 20 25  1  0
 20 26  2  0
 21 27  1  0
 22 28  1  0
 22 29  1  0
 25 30  1  0
 26 31  1  0
 27 32  1  0
 29 33  3  0
 31 34  1  0
 33 35  1  0
  6  7  1  0
 12 10  1  0
 15 18  1  0
 21 26  1  0
 22 24  1  0
  3 36  1  0
  4 37  1  0
  4 38  1  0
  6 39  1  0
  6 40  1  0
  8 41  1  0
  8 42  1  0
 10 43  1  0
 10 44  1  0
 11 45  1  0
 12 46  1  0
 14 47  1  0
 14 48  1  0
 15 49  1  0
 16 50  1  0
 17 51  1  0
 19 52  1  0
 19 53  1  0
 23 54  1  0
 23 55  1  0
 23 56  1  0
 24 57  1  0
 24 58  1  0
 28 59  1  0
 30 60  1  0
 30 61  1  0
 30 62  1  0
 32 63  1  0
 32 64  1  0
 32 65  1  0
 34 66  1  0
 34 67  1  0
 34 68  1  0
 35 69  1  0
 35 70  1  0
 35 71  1  0
M  END
> <Name>
CHEMBL221545

> <IC50 nM>
60.7

> <Molecule_ChEMBL_ID>
CHEMBL221545

> <Smiles>
CC#C[C@]1(O)CC[C@H]2[C@@H]3CCC4=CC(=O)CCC4=C3[C@@H](c3cc(OC)c(OC)c(OC)c3)C[C@@]21C

$$$$
CHEMBL221426
  SciTegic08162514323D

 66 70  0  0  1  0            999 V2000
   -5.5650    2.1450    0.6370 O   0  0
   -4.9490    1.1310    0.4040 C   0  0
   -4.5000    0.2360    1.4780 C   0  0
   -4.5960    0.7090   -0.9980 C   0  0
   -3.3590   -0.4690    1.3440 C   0  0
   -3.1230    0.2810   -1.1230 C   0  0
   -2.4920   -0.2790    0.1480 C   0  0
   -2.9490   -1.4410    2.4350 C   0  0
   -1.1640   -0.5620    0.2110 C   0  0
   -1.5980   -2.1170    2.1520 C   0  0
   -0.2250   -0.3030   -0.9750 C   0  0  1  0  0  0
   -0.6050   -1.1250    1.5170 C   0  0  1  0  0  0
   -0.0410    1.1620   -1.2170 C   0  0
    1.1560   -0.9940   -0.8730 C   0  0
    0.7810   -1.7790    1.3960 C   0  0  1  0  0  0
    0.5530    1.6270   -2.4060 C   0  0
   -0.4670    2.0820   -0.2420 C   0  0
    1.7290   -0.9100    0.5560 C   0  0  1  0  0  0
    1.5490   -1.9430    2.7110 C   0  0
    0.7190    3.0080   -2.6130 C   0  0
    1.0120    0.6700   -3.4490 C   0  0
   -0.3010    3.4610   -0.4530 C   0  0
    3.1060   -1.5640    0.8340 C   0  0  2  0  0  0
    1.7420    0.5350    1.1110 C   0  0
    3.0370   -1.8180    2.3530 C   0  0
    0.2910    3.9280   -1.6410 C   0  0
    4.1720   -0.6860    0.5190 O   0  0
    3.3220   -2.8110    0.0840 C   0  0
    0.4470    5.2210   -1.8380 O   0  0
    3.5140   -3.8130   -0.5280 C   0  0
   -0.0510    6.1110   -0.8500 C   0  0
    3.7560   -5.0310   -1.2890 C   0  0
   -5.0920    0.1540    2.3770 H   0  0
   -5.2400   -0.1230   -1.2740 H   0  0
   -4.8110    1.5140   -1.7010 H   0  0
   -2.5720    1.1640   -1.4360 H   0  0
   -3.0220   -0.4450   -1.9300 H   0  0
   -2.8870   -0.8950    3.3790 H   0  0
   -3.7270   -2.1990    2.5660 H   0  0
   -1.7520   -2.9670    1.4840 H   0  0
   -1.2050   -2.5270    3.0820 H   0  0
   -0.7010   -0.6990   -1.8710 H   0  0
   -0.5160   -0.2830    2.2070 H   0  0
    1.8650   -0.5680   -1.5820 H   0  0
    1.0410   -2.0350   -1.1760 H   0  0
    0.6740   -2.7560    0.9430 H   0  0
   -0.9240    1.7340    0.6740 H   0  0
    1.2810   -1.1640    3.4120 H   0  0
    1.3280   -2.8870    3.1850 H   0  0
    1.1740    3.3650   -3.5260 H   0  0
    0.5530   -0.3180   -3.3850 H   0  0
    2.0920    0.5410   -3.3750 H   0  0
    0.7910    1.0740   -4.4380 H   0  0
   -0.6310    4.1640    0.2990 H   0  0
    0.7420    0.8850    1.3610 H   0  0
    2.1640    1.2250    0.3790 H   0  0
    2.3520    0.5960    2.0120 H   0  0
    3.4530   -0.9860    2.9060 H   0  0
    3.6000   -2.6910    2.6620 H   0  0
    4.0660   -0.4280   -0.4100 H   0  0
    0.2070    7.1290   -1.1470 H   0  0
   -1.1130    5.9040   -0.7090 H   0  0
    0.4570    5.8990    0.0900 H   0  0
    4.7340   -4.9920   -1.7680 H   0  0
    3.7250   -5.8950   -0.6250 H   0  0
    2.9920   -5.1500   -2.0590 H   0  0
  1  2  2  0
  2  3  1  0
  2  4  1  0
  3  5  2  0
  4  6  1  0
  5  7  1  0
  5  8  1  0
  7  9  2  0
  8 10  1  0
  9 11  1  0
  9 12  1  0
 11 13  1  0
 11 14  1  0
 12 15  1  0
 13 16  2  0
 13 17  1  0
 14 18  1  0
 15 19  1  0
 16 20  1  0
 16 21  1  0
 17 22  2  0
 18 23  1  0
 18 24  1  0
 19 25  1  0
 20 26  2  0
 23 27  1  0
 23 28  1  0
 26 29  1  0
 28 30  3  0
 29 31  1  0
 30 32  1  0
  6  7  1  0
 12 10  1  0
 15 18  1  0
 22 26  1  0
 23 25  1  0
  3 33  1  0
  4 34  1  0
  4 35  1  0
  6 36  1  0
  6 37  1  0
  8 38  1  0
  8 39  1  0
 10 40  1  0
 10 41  1  0
 11 42  1  0
 12 43  1  0
 14 44  1  0
 14 45  1  0
 15 46  1  0
 17 47  1  0
 19 48  1  0
 19 49  1  0
 20 50  1  0
 21 51  1  0
 21 52  1  0
 21 53  1  0
 22 54  1  0
 24 55  1  0
 24 56  1  0
 24 57  1  0
 25 58  1  0
 25 59  1  0
 27 60  1  0
 31 61  1  0
 31 62  1  0
 31 63  1  0
 32 64  1  0
 32 65  1  0
 32 66  1  0
M  END
> <Name>
CHEMBL221426

> <IC50 nM>
32

> <Molecule_ChEMBL_ID>
CHEMBL221426

> <Smiles>
CC#C[C@]1(O)CC[C@H]2[C@@H]3CCC4=CC(=O)CCC4=C3[C@@H](c3ccc(OC)cc3C)C[C@@]21C

$$$$
CHEMBL426386
  SciTegic08162514323D

 63 67  0  0  1  0            999 V2000
   -4.0960   -1.6660    3.6540 O   0  0
   -3.6760   -1.3520    2.5660 C   0  0
   -3.7830    0.0410    2.1040 C   0  0
   -3.0250   -2.3710    1.6600 C   0  0
   -2.9430    0.5390    1.1760 C   0  0
   -2.1150   -1.7990    0.5550 C   0  0
   -1.8790   -0.2970    0.5880 C   0  0
   -3.0230    1.9770    0.7310 C   0  0
   -0.7320    0.2730    0.1270 C   0  0
   -1.6350    2.5900    0.9240 C   0  0
    0.4470   -0.5550   -0.3960 C   0  0  1  0  0  0
   -0.5290    1.7910    0.1880 C   0  0  1  0  0  0
    0.0920   -1.4770   -1.5210 C   0  0
    1.7010    0.2810   -0.7730 C   0  0
    0.8070    1.9880    0.9180 C   0  0  1  0  0  0
   -0.6540   -0.9980   -2.6130 C   0  0
    0.5040   -2.8200   -1.4880 C   0  0
    1.9840    1.5920    0.0020 C   0  0  1  0  0  0
    1.3070    3.2990    1.5270 C   0  0
   -0.9880   -1.8630   -3.6720 C   0  0
    0.1700   -3.6840   -2.5450 C   0  0
    3.1020    1.6190    1.0840 C   0  0  2  0  0  0
    2.2330    2.7190   -1.0310 C   0  0
    2.7520    2.9040    1.8910 C   0  0
   -0.5760   -3.2110   -3.6390 C   0  0
   -1.7770   -1.3480   -4.8200 C   0  0
    4.3910    1.7290    0.5060 O   0  0
    3.0920    0.4100    1.9320 C   0  0
   -0.8850   -4.0290   -4.6250 O   0  0
    3.0630   -0.5660    2.6130 C   0  0
    3.0040   -1.7720    3.4410 C   0  0
   -4.5470    0.6700    2.5350 H   0  0
   -2.4490   -3.0720    2.2660 H   0  0
   -3.8120   -2.9650    1.1950 H   0  0
   -1.1720   -2.3400    0.6230 H   0  0
   -2.5430   -2.0470   -0.4180 H   0  0
   -3.7690    2.5290    1.3030 H   0  0
   -3.3220    2.0230   -0.3180 H   0  0
   -1.4340    2.6310    1.9960 H   0  0
   -1.6310    3.6270    0.5840 H   0  0
    0.7460   -1.2050    0.4260 H   0  0
   -0.4610    2.1740   -0.8320 H   0  0
    2.5840   -0.3550   -0.7400 H   0  0
    1.5980    0.5450   -1.8280 H   0  0
    0.7340    1.3260    1.7730 H   0  0
   -0.9710    0.0330   -2.6410 H   0  0
    1.0780   -3.1930   -0.6520 H   0  0
    0.7340    3.6130    2.3870 H   0  0
    1.2810    4.1070    0.8110 H   0  0
    0.4880   -4.7150   -2.5160 H   0  0
    2.6880    3.5980   -0.5720 H   0  0
    1.2970    3.0330   -1.4940 H   0  0
    2.8970    2.3750   -1.8240 H   0  0
    3.4060    3.7320    1.6580 H   0  0
    2.8380    2.7500    2.9590 H   0  0
   -1.9880   -2.0900   -5.5900 H   0  0
   -1.2400   -0.5230   -5.2910 H   0  0
   -2.7320   -0.9610   -4.4630 H   0  0
    5.0040    1.9730    1.2170 H   0  0
   -0.5920   -4.9490   -4.5840 H   0  0
    3.7950   -1.7720    4.1930 H   0  0
    2.0430   -1.8360    3.9530 H   0  0
    3.1190   -2.6620    2.8220 H   0  0
  1  2  2  0
  2  3  1  0
  2  4  1  0
  3  5  2  0
  4  6  1  0
  5  7  1  0
  5  8  1  0
  7  9  2  0
  8 10  1  0
  9 11  1  0
  9 12  1  0
 11 13  1  0
 11 14  1  0
 12 15  1  0
 13 16  2  0
 13 17  1  0
 14 18  1  0
 15 19  1  0
 16 20  1  0
 17 21  2  0
 18 22  1  0
 18 23  1  0
 19 24  1  0
 20 25  2  0
 20 26  1  0
 22 27  1  0
 22 28  1  0
 25 29  1  0
 28 30  3  0
 30 31  1  0
  6  7  1  0
 12 10  1  0
 15 18  1  0
 21 25  1  0
 22 24  1  0
  3 32  1  0
  4 33  1  0
  4 34  1  0
  6 35  1  0
  6 36  1  0
  8 37  1  0
  8 38  1  0
 10 39  1  0
 10 40  1  0
 11 41  1  0
 12 42  1  0
 14 43  1  0
 14 44  1  0
 15 45  1  0
 16 46  1  0
 17 47  1  0
 19 48  1  0
 19 49  1  0
 21 50  1  0
 23 51  1  0
 23 52  1  0
 23 53  1  0
 24 54  1  0
 24 55  1  0
 26 56  1  0
 26 57  1  0
 26 58  1  0
 27 59  1  0
 29 60  1  0
 31 61  1  0
 31 62  1  0
 31 63  1  0
M  END
> <Name>
CHEMBL426386

> <IC50 nM>
28.6

> <Molecule_ChEMBL_ID>
CHEMBL426386

> <Smiles>
CC#C[C@]1(O)CC[C@H]2[C@@H]3CCC4=CC(=O)CCC4=C3[C@@H](c3ccc(O)c(C)c3)C[C@@]21C

$$$$
CHEMBL1940687
  SciTegic08162514323D

 69 74  0  0  1  0            999 V2000
    6.9300    2.0000    1.8080 S   0  0
    5.9060    1.3790    0.5390 C   0  0
    7.6430    0.5100    1.7870 C   0  0
    4.6290    1.9260   -0.4200 S   0  0
    6.1780    0.0430    0.1720 N   0  0
    7.2090   -0.4610    0.9160 C   0  0
    8.7150    0.2050    2.6640 C   0  0
    3.5350    0.5610   -0.4140 C   0  0
    7.7850   -1.7520    0.8590 C   0  0
    9.3220   -1.0740    2.6390 C   0  0
    2.1480    1.0290   -0.7700 C   0  0
    8.8560   -2.0590    1.7340 C   0  0
    1.9180    2.1990   -0.9650 O   0  0
    1.0530   -0.0100   -0.8730 C   0  0  2  0  0  0
    1.1580   -0.6020   -2.1580 O   0  0
   -0.3730    0.5450   -0.6350 C   0  0  2  0  0  0
    1.1230   -1.0980    0.2240 C   0  0  1  0  0  0
   -1.1930   -0.7460   -0.5060 C   0  0  1  0  0  0
   -1.0310    1.3730   -1.7540 C   0  0
   -0.3400    1.3220    0.6930 C   0  0
   -0.3130   -1.6270    0.3830 C   0  0
    2.1370   -2.2170   -0.0080 C   0  0
   -2.6230   -0.4730   -0.0040 C   0  0  1  0  0  0
   -2.5080    1.7070   -1.4300 C   0  0  1  0  0  0
   -3.3630    0.4730   -0.9860 C   0  0  2  0  0  0
   -3.3930   -1.8010    0.1370 C   0  0
   -2.5430    2.7400   -0.4630 O   0  0
   -4.8050    0.7990   -0.4570 C   0  0  2  0  0  0
   -4.8260   -1.5740    0.6350 C   0  0
   -5.5630   -0.4940   -0.1410 C   0  0
   -5.5550    1.6990   -1.4340 C   0  0
   -4.7620    1.5550    0.8770 C   0  0
   -6.8480   -0.6820   -0.5080 C   0  0
   -6.8380    1.4860   -1.7850 C   0  0
   -7.5780    0.3300   -1.2760 C   0  0
   -8.7640    0.2170   -1.4860 O   0  0
    9.0740    0.9530    3.3570 H   0  0
    3.8730   -0.1800   -1.1390 H   0  0
    3.5290    0.1040    0.5760 H   0  0
    7.4220   -2.4960    0.1640 H   0  0
   10.1390   -1.3010    3.3090 H   0  0
    9.3150   -3.0350    1.7110 H   0  0
    2.0550   -0.9670   -2.2330 H   0  0
    1.3910   -0.6230    1.1600 H   0  0
   -1.2660   -1.2210   -1.4770 H   0  0
   -1.0060    0.8090   -2.6880 H   0  0
   -0.4590    2.2850   -1.9380 H   0  0
   -1.3420    1.5330    1.0640 H   0  0
    0.1780    2.2730    0.5700 H   0  0
    0.1880    0.7520    1.4590 H   0  0
   -0.4120   -2.6660    0.0990 H   0  0
   -0.6210   -1.5530    1.4160 H   0  0
    2.1430   -2.9120    0.8300 H   0  0
    1.9060   -2.7620   -0.9220 H   0  0
    3.1430   -1.8090   -0.1100 H   0  0
   -2.5700    0.0000    0.9780 H   0  0
   -2.9450    2.1350   -2.3320 H   0  0
   -3.4980   -0.1040   -1.9060 H   0  0
   -3.4220   -2.3220   -0.8220 H   0  0
   -2.8810   -2.4670    0.8300 H   0  0
   -2.8240    3.5490   -0.9180 H   0  0
   -5.3770   -2.5160    0.5960 H   0  0
   -4.7970   -1.2810    1.6850 H   0  0
   -5.0490    2.5510   -1.8690 H   0  0
   -5.7090    1.4920    1.4100 H   0  0
   -4.5410    2.6110    0.7130 H   0  0
   -3.9860    1.1500    1.5250 H   0  0
   -7.3560   -1.5960   -0.2360 H   0  0
   -7.3200    2.1820   -2.4550 H   0  0
  1  2  1  0
  1  3  1  0
  2  4  1  0
  2  5  2  0
  3  6  1  0
  3  7  2  0
  4  8  1  0
  6  9  2  0
  7 10  1  0
  8 11  1  0
  9 12  1  0
 11 13  2  0
 11 14  1  0
 14 15  1  0
 14 16  1  0
 14 17  1  0
 16 18  1  0
 16 19  1  0
 16 20  1  0
 17 21  1  0
 17 22  1  0
 18 23  1  0
 19 24  1  0
 25 23  1  0
 23 26  1  0
 24 27  1  0
 25 28  1  0
 26 29  1  0
 28 30  1  0
 28 31  1  0
 28 32  1  0
 30 33  2  0
 31 34  2  0
 33 35  1  0
 35 36  2  0
  5  6  1  0
 10 12  2  0
 18 21  1  0
 24 25  1  0
 29 30  1  0
 34 35  1  0
  7 37  1  0
  8 38  1  0
  8 39  1  0
  9 40  1  0
 10 41  1  0
 12 42  1  0
 15 43  1  0
 17 44  1  0
 18 45  1  0
 19 46  1  0
 19 47  1  0
 20 48  1  0
 20 49  1  0
 20 50  1  0
 21 51  1  0
 21 52  1  0
 22 53  1  0
 22 54  1  0
 22 55  1  0
 23 56  1  0
 24 57  1  0
 25 58  1  0
 26 59  1  0
 26 60  1  0
 27 61  1  0
 29 62  1  0
 29 63  1  0
 31 64  1  0
 32 65  1  0
 32 66  1  0
 32 67  1  0
 33 68  1  0
 34 69  1  0
M  END
> <Name>
CHEMBL1940687

> <IC50 nM>
5.8

> <Molecule_ChEMBL_ID>
CHEMBL1940687

> <Smiles>
C[C@@H]1C[C@H]2[C@@H]3CCC4=CC(=O)C=C[C@]4(C)[C@H]3[C@@H](O)C[C@]2(C)[C@@]1(O)C(=O)CSc1nc2ccccc2s1

$$$$
CHEMBL3421883
  SciTegic08162514323D

 51 53  0  0  1  0            999 V2000
   -5.5530   -2.1170    0.1270 O   0  0
   -4.3090   -1.6500   -0.0650 C   0  0
   -4.0780   -0.2580   -0.1190 C   0  0
   -3.2330   -2.5510   -0.2130 C   0  0
   -2.7660    0.2380   -0.3260 C   0  0
   -1.9200   -2.0610   -0.4100 C   0  0
   -1.6700   -0.6600   -0.4610 C   0  0
   -2.5240    1.6990   -0.4180 C   0  0
   -0.2970   -0.0840   -0.6510 C   0  0  1  0  0  0
   -1.2190    2.1600    0.2670 C   0  0
   -0.1150    1.0780    0.3710 C   0  0  2  0  0  0
    0.8500   -1.1230   -0.4400 C   0  0
   -0.2230    0.4610   -2.0880 C   0  0
    1.2950    1.6970    0.3180 C   0  0
    2.2850   -0.5370   -0.4360 C   0  0  2  0  0  0
   -0.3690   -0.6370   -3.1430 C   0  0
    2.3930    0.6450    0.5720 C   0  0  1  0  0  0
    2.5860   -0.0980   -1.7520 O   0  0
    3.3120   -1.6410   -0.1430 C   0  0
    3.6520    1.2890    0.4570 O   0  0
    2.3320    0.1460    2.0230 C   0  0
    2.3440    1.2750    3.0180 C   0  0
    1.3500    1.3440    3.9200 C   0  0
   -6.2810   -1.4900    0.2260 H   0  0
   -4.9060    0.4260   -0.0060 H   0  0
   -3.4080   -3.6150   -0.1780 H   0  0
   -1.1250   -2.7810   -0.5180 H   0  0
   -2.4750    1.9510   -1.4770 H   0  0
   -3.3670    2.2680   -0.0200 H   0  0
   -1.4450    2.5250    1.2710 H   0  0
   -0.8440    3.0310   -0.2760 H   0  0
   -0.2230    0.6390    1.3650 H   0  0
    0.7890   -1.9060   -1.1970 H   0  0
    0.6990   -1.6230    0.5190 H   0  0
   -0.9650    1.2440   -2.2420 H   0  0
    0.6990    1.0210   -2.2400 H   0  0
    1.3650    2.4980    1.0570 H   0  0
    1.4410    2.1740   -0.6520 H   0  0
   -0.4920   -0.2030   -4.1350 H   0  0
    0.5060   -1.2870   -3.1450 H   0  0
   -1.2420   -1.2540   -2.9380 H   0  0
    2.5160   -0.8710   -2.3340 H   0  0
    3.2620   -2.4450   -0.8730 H   0  0
    3.1410   -2.0720    0.8440 H   0  0
    4.3240   -1.2380   -0.1580 H   0  0
    4.3260    0.6460    0.7250 H   0  0
    3.2150   -0.4790    2.1620 H   0  0
    1.4530   -0.4790    2.1800 H   0  0
    3.0840    2.0570    3.0880 H   0  0
    1.2230    2.0880    4.6910 H   0  0
    0.6090    0.5610    3.8520 H   0  0
  1  2  1  0
  2  3  2  0
  2  4  1  0
  3  5  1  0
  4  6  2  0
  5  7  2  0
  5  8  1  0
  7  9  1  0
  8 10  1  0
  9 11  1  0
  9 12  1  0
  9 13  1  0
 11 14  1  0
 12 15  1  0
 13 16  1  0
 14 17  1  0
 15 18  1  0
 15 19  1  0
 17 20  1  0
 17 21  1  0
 21 22  1  0
 22 23  2  0
  6  7  1  0
 10 11  1  0
 15 17  1  0
  1 24  1  0
  3 25  1  0
  4 26  1  0
  6 27  1  0
  8 28  1  0
  8 29  1  0
 10 30  1  0
 10 31  1  0
 11 32  1  0
 12 33  1  0
 12 34  1  0
 13 35  1  0
 13 36  1  0
 14 37  1  0
 14 38  1  0
 16 39  1  0
 16 40  1  0
 16 41  1  0
 18 42  1  0
 19 43  1  0
 19 44  1  0
 19 45  1  0
 20 46  1  0
 21 47  1  0
 21 48  1  0
 22 49  1  0
 23 50  1  0
 23 51  1  0
M  END
> <Name>
CHEMBL3421883

> <IC50 nM>
35.4

> <Molecule_ChEMBL_ID>
CHEMBL3421883

> <Smiles>
C=CC[C@]1(O)C[C@H]2CCc3cc(O)ccc3[C@]2(CC)C[C@@]1(C)O

$$$$
CHEMBL3421878
  SciTegic08162514323D

 53 56  0  0  1  0            999 V2000
   -4.0880   -4.0260    1.3160 O   0  0
   -3.2240   -3.1760    0.7440 C   0  0
   -3.6150   -1.8460    0.4750 C   0  0
   -1.9220   -3.6060    0.4140 C   0  0
   -2.7070   -0.9380   -0.1250 C   0  0
   -1.0100   -2.7130   -0.1890 C   0  0
   -1.3870   -1.3670   -0.4690 C   0  0
   -3.1480    0.4610   -0.3960 C   0  0
   -0.4670   -0.3630   -1.1020 C   0  0  1  0  0  0
   -2.0250    1.5310   -0.4000 C   0  0
   -0.6110    0.9390   -0.2600 C   0  0  2  0  0  0
    1.0450   -0.7520   -1.2210 C   0  0
   -0.9710   -0.1290   -2.5390 C   0  0
    0.5220    1.9370   -0.5390 C   0  0
    1.9240   -0.2050   -0.0740 C   0  0  2  0  0  0
   -0.8900   -1.3870   -3.4040 C   0  0
    1.9140    1.3750   -0.1040 C   0  0  1  0  0  0
    3.2370   -0.7190   -0.2440 O   0  0
    1.4650   -0.8070    1.2660 C   0  0
    2.8360    1.8610   -1.0680 O   0  0
    2.3380    1.9530    1.2090 C   0  0
    1.3810    2.3340    2.1640 C   0  0
    3.7030    2.1250    1.5060 C   0  0
    1.8110    2.8750    3.3930 C   0  0
    4.0730    2.6720    2.7480 C   0  0
    3.1370    3.0390    3.6720 N   0  0
   -4.9760   -3.7190    1.5370 H   0  0
   -4.6150   -1.5240    0.7290 H   0  0
   -1.6210   -4.6230    0.6210 H   0  0
   -0.0290   -3.0980   -0.4200 H   0  0
   -3.9120    0.7600    0.3240 H   0  0
   -3.6440    0.4650   -1.3690 H   0  0
   -2.0900    2.1070   -1.3240 H   0  0
   -2.1930    2.2480    0.4040 H   0  0
   -0.5170    0.6930    0.8010 H   0  0
    1.4420   -0.3090   -2.1370 H   0  0
    1.2050   -1.8170   -1.3870 H   0  0
   -1.9840    0.2690   -2.5330 H   0  0
   -0.4310    0.6950   -3.0080 H   0  0
    0.3090    2.8940   -0.0590 H   0  0
    0.4920    2.1500   -1.6110 H   0  0
   -1.2640   -1.1900   -4.4080 H   0  0
    0.1390   -1.7440   -3.4710 H   0  0
   -1.4940   -2.1880   -2.9770 H   0  0
    3.1680   -1.6880   -0.2420 H   0  0
    1.7290   -1.8620    1.3480 H   0  0
    0.3850   -0.7250    1.3750 H   0  0
    1.9260   -0.2810    2.1020 H   0  0
    3.6720    1.3890   -0.9300 H   0  0
    0.3260    2.2130    1.9670 H   0  0
    4.4610    1.8420    0.7910 H   0  0
    1.0760    3.1680    4.1270 H   0  0
    5.1190    2.8050    2.9790 H   0  0
  1  2  1  0
  2  3  2  0
  2  4  1  0
  3  5  1  0
  4  6  2  0
  5  7  2  0
  5  8  1  0
  7  9  1  0
  8 10  1  0
  9 11  1  0
  9 12  1  0
  9 13  1  0
 11 14  1  0
 12 15  1  0
 13 16  1  0
 14 17  1  0
 15 18  1  0
 15 19  1  0
 17 20  1  0
 17 21  1  0
 21 22  2  0
 21 23  1  0
 22 24  1  0
 23 25  2  0
 24 26  2  0
  6  7  1  0
 10 11  1  0
 15 17  1  0
 25 26  1  0
  1 27  1  0
  3 28  1  0
  4 29  1  0
  6 30  1  0
  8 31  1  0
  8 32  1  0
 10 33  1  0
 10 34  1  0
 11 35  1  0
 12 36  1  0
 12 37  1  0
 13 38  1  0
 13 39  1  0
 14 40  1  0
 14 41  1  0
 16 42  1  0
 16 43  1  0
 16 44  1  0
 18 45  1  0
 19 46  1  0
 19 47  1  0
 19 48  1  0
 20 49  1  0
 22 50  1  0
 23 51  1  0
 24 52  1  0
 25 53  1  0
M  END
> <Name>
CHEMBL3421878

> <IC50 nM>
100

> <Molecule_ChEMBL_ID>
CHEMBL3421878

> <Smiles>
CC[C@@]12C[C@@](C)(O)[C@](O)(c3ccncc3)C[C@H]1CCc1cc(O)ccc12

$$$$
CHEMBL481784
  SciTegic08162514323D

 57 59  0  0  1  0            999 V2000
   -1.4530    3.6680   -2.2360 Cl  0  0
   -1.9650    2.3610   -3.2290 C   0  0
   -2.0760    2.5900   -4.5700 N   0  0
   -2.2640    1.0920   -2.6780 C   0  0
   -2.4800    1.5900   -5.4020 C   0  0
   -2.1460    0.8220   -1.2110 C   0  0
   -2.6800    0.0550   -3.5330 C   0  0
   -2.7890    0.3080   -4.9100 C   0  0
   -1.0800    0.8960   -0.6480 O   0  0
   -3.2730    0.4920   -0.5120 N   0  0
   -3.1680    0.1740    0.9200 C   0  0
   -4.5940    0.4430   -1.1560 C   0  0
   -2.9650   -1.3260    1.1350 C   0  0  2  0  0  0
   -5.0640    1.8460   -1.5450 C   0  0
   -4.0060   -2.0100    0.4750 O   0  0
   -3.1070   -1.5740    2.6370 C   0  0
   -1.6330   -1.8280    0.5780 C   0  0
   -4.4280   -1.4670    2.9940 F   0  0
   -2.3730   -0.6450    3.3260 F   0  0
   -2.6520   -2.8300    2.9380 F   0  0
   -0.5020   -1.1270    1.2050 N   0  0
    0.7620   -1.3360    0.7320 C   0  0
    0.9510   -2.0920   -0.1910 O   0  0
    1.8850   -0.6430    1.3500 C   0  0
    3.2560   -0.8050    1.0310 C   0  0
    1.7950    0.3160    2.3830 C   0  0
    3.9280    0.0370    1.8560 N   0  0
    3.8050   -1.7110    0.0040 N   0  0
    3.0630    0.6850    2.6390 N   0  0
    5.2760    0.2150    1.8990 C   0  0
    5.8210    1.5120    1.8180 C   0  0
    6.1310   -0.8970    2.0240 C   0  0
    7.2130    1.6930    1.8650 C   0  0
    7.5240   -0.7130    2.0680 C   0  0
    8.0650    0.5820    1.9900 C   0  0
    9.3850    0.7560    2.0310 F   0  0
   -2.5620    1.7830   -6.4630 H   0  0
   -2.9140   -0.9260   -3.1450 H   0  0
   -3.1090   -0.4730   -5.5840 H   0  0
   -4.0660    0.5190    1.4300 H   0  0
   -2.3420    0.7400    1.3520 H   0  0
   -4.5410   -0.2010   -2.0330 H   0  0
   -5.3050   -0.0270   -0.4800 H   0  0
   -6.1290    1.8440   -1.7810 H   0  0
   -4.8810    2.5530   -0.7360 H   0  0
   -4.5290    2.2010   -2.4260 H   0  0
   -3.6540   -2.3090   -0.3790 H   0  0
   -1.5880   -1.6860   -0.5020 H   0  0
   -1.5250   -2.8990    0.7440 H   0  0
   -0.6560   -0.5000    1.9710 H   0  0
    0.9180    0.7010    2.8870 H   0  0
    3.2190   -2.3050   -0.5490 H   0  0
    4.7910   -1.7440   -0.1560 H   0  0
    5.1820    2.3790    1.7230 H   0  0
    5.7330   -1.9010    2.0860 H   0  0
    7.6250    2.6890    1.8030 H   0  0
    8.1740   -1.5680    2.1640 H   0  0
  1  2  1  0
  2  3  2  0
  2  4  1  0
  3  5  1  0
  4  6  1  0
  4  7  2  0
  5  8  2  0
  6  9  2  0
  6 10  1  0
 10 11  1  0
 10 12  1  0
 11 13  1  0
 12 14  1  0
 13 15  1  0
 13 16  1  0
 13 17  1  0
 16 18  1  0
 16 19  1  0
 16 20  1  0
 17 21  1  0
 21 22  1  0
 22 23  2  0
 22 24  1  0
 24 25  2  0
 24 26  1  0
 25 27  1  0
 25 28  1  0
 26 29  2  0
 27 30  1  0
 30 31  2  0
 30 32  1  0
 31 33  1  0
 32 34  2  0
 33 35  2  0
 35 36  1  0
  7  8  1  0
 27 29  1  0
 34 35  1  0
  5 37  1  0
  7 38  1  0
  8 39  1  0
 11 40  1  0
 11 41  1  0
 12 42  1  0
 12 43  1  0
 14 44  1  0
 14 45  1  0
 14 46  1  0
 15 47  1  0
 17 48  1  0
 17 49  1  0
 21 50  1  0
 26 51  1  0
 28 52  1  0
 28 53  1  0
 31 54  1  0
 32 55  1  0
 33 56  1  0
 34 57  1  0
M  END
> <Name>
CHEMBL481784

> <IC50 nM>
39.81

> <Molecule_ChEMBL_ID>
CHEMBL481784

> <Smiles>
CCN(CC(O)(CNC(=O)c1cnn(-c2ccc(F)cc2)c1N)C(F)(F)F)C(=O)c1cccnc1Cl

$$$$
CHEMBL3261414
  SciTegic08162514323D

 63 66  0  0  1  0            999 V2000
   -0.6540   -4.2070    0.3630 S   0  0
   -1.6950   -5.2190    0.3970 O   0  0
    0.2050   -4.3050   -0.8050 O   0  0
   -1.4750   -2.6780    0.2290 N   0  0
    0.3280   -4.3890    1.7750 C   0  0
   -2.2190   -2.4080   -0.9900 C   0  0  2  0  0  0
    1.6800   -4.0000    1.7460 C   0  0
   -0.2270   -4.9280    2.9510 C   0  0
   -2.5820   -0.9260   -1.0800 C   0  0
   -3.4400   -3.3240   -1.0860 C   0  0
    2.4770   -4.1490    2.8970 C   0  0
    2.2720   -3.4300    0.5080 C   0  0
    0.5720   -5.0740    4.1000 C   0  0
   -1.6540   -5.3420    2.9880 C   0  0
   -1.3770   -0.0940   -1.2030 N   0  0
    1.9240   -4.6860    4.0720 C   0  0
   -1.4880    1.2460   -1.2710 C   0  0
    2.7660   -4.8440    5.2870 C   0  0
   -0.2540    1.9730   -1.3810 C   0  0
   -2.7310    1.9320   -1.2420 C   0  0
   -0.3300    3.3570   -1.4530 C   0  0
    1.0210    1.4100   -1.4180 C   0  0
   -2.7580    3.3480   -1.3220 C   0  0
    0.9730    3.7250   -1.5450 N   0  0
   -1.5490    4.0780   -1.4280 C   0  0
    1.7360    2.5820   -1.5230 N   0  0
    1.4590    4.9900   -1.6430 C   0  0
    0.8440    5.9180   -2.5040 C   0  0
    2.5760    5.3770   -0.8790 C   0  0
    1.3460    7.2290   -2.6050 C   0  0
    3.0780    6.6880   -0.9800 C   0  0
    2.4650    7.6130   -1.8420 C   0  0
    0.6880    8.1990   -3.5220 C   0  0
    2.9490    8.8520   -1.9280 F   0  0
   -2.1130   -2.5610    1.0270 H   0  0
   -1.4800   -2.6700   -1.7500 H   0  0
   -3.1450   -0.6150   -0.1990 H   0  0
   -3.2340   -0.7400   -1.9320 H   0  0
   -3.1350   -4.3610   -1.2190 H   0  0
   -4.0510   -3.2440   -0.1870 H   0  0
   -4.0610   -3.0470   -1.9370 H   0  0
    3.5140   -3.8500    2.8750 H   0  0
    3.2380   -2.9470    0.6540 H   0  0
    1.5900   -2.6920    0.0840 H   0  0
    2.4040   -4.2230   -0.2280 H   0  0
    0.1460   -5.4880    5.0040 H   0  0
   -2.0450   -5.5200    3.9900 H   0  0
   -1.7830   -6.2580    2.4140 H   0  0
   -2.2700   -4.5680    2.5250 H   0  0
   -0.4750   -0.5240   -1.2340 H   0  0
    2.2440   -5.2680    6.1430 H   0  0
    3.1580   -3.8710    5.5840 H   0  0
    3.6130   -5.4880    5.0590 H   0  0
   -3.6600    1.3870   -1.1620 H   0  0
    1.3970    0.3940   -1.3810 H   0  0
   -3.7010    3.8710   -1.3010 H   0  0
   -1.5630    5.1560   -1.4880 H   0  0
   -0.0160    5.6350   -3.0980 H   0  0
    3.0610    4.6800   -0.2110 H   0  0
    3.9360    6.9790   -0.3930 H   0  0
    1.1480    9.1880   -3.5310 H   0  0
   -0.3550    8.3200   -3.2320 H   0  0
    0.7110    7.8130   -4.5390 H   0  0
  1  2  2  0
  1  3  2  0
  1  4  1  0
  1  5  1  0
  4  6  1  0
  5  7  2  0
  5  8  1  0
  6  9  1  0
  6 10  1  0
  7 11  1  0
  7 12  1  0
  8 13  2  0
  8 14  1  0
  9 15  1  0
 11 16  2  0
 15 17  1  0
 16 18  1  0
 17 19  2  0
 17 20  1  0
 19 21  1  0
 19 22  1  0
 20 23  2  0
 21 24  1  0
 21 25  2  0
 22 26  2  0
 24 27  1  0
 27 28  2  0
 27 29  1  0
 28 30  1  0
 29 31  2  0
 30 32  2  0
 30 33  1  0
 32 34  1  0
 13 16  1  0
 23 25  1  0
 24 26  1  0
 31 32  1  0
  4 35  1  0
  6 36  1  0
  9 37  1  0
  9 38  1  0
 10 39  1  0
 10 40  1  0
 10 41  1  0
 11 42  1  0
 12 43  1  0
 12 44  1  0
 12 45  1  0
 13 46  1  0
 14 47  1  0
 14 48  1  0
 14 49  1  0
 15 50  1  0
 18 51  1  0
 18 52  1  0
 18 53  1  0
 20 54  1  0
 22 55  1  0
 23 56  1  0
 25 57  1  0
 28 58  1  0
 29 59  1  0
 31 60  1  0
 33 61  1  0
 33 62  1  0
 33 63  1  0
M  END
> <Name>
CHEMBL3261414

> <IC50 nM>
14

> <Molecule_ChEMBL_ID>
CHEMBL3261414

> <Smiles>
Cc1cc(C)c(S(=O)(=O)N[C@@H](C)CNc2cccc3c2cnn3-c2ccc(F)c(C)c2)c(C)c1

$$$$
CHEMBL3261423
  SciTegic08162514323D

 59 62  0  0  1  0            999 V2000
   -0.6390   -2.2990   -0.2770 S   0  0
   -1.2680   -1.0900   -0.7790 O   0  0
    0.7910   -2.1560   -0.0720 O   0  0
   -1.3240   -2.5760    1.2990 N   0  0
   -0.9000   -3.5650   -1.4240 C   0  0
   -0.9980   -1.6390    2.3590 C   0  0  2  0  0  0
   -2.0960   -4.3110   -1.3890 C   0  0
    0.0800   -3.8500   -2.3930 C   0  0
   -1.6720   -2.0550    3.6660 C   0  0
   -1.3540   -0.2110    1.9390 C   0  0
   -2.3070   -5.3400   -2.3220 C   0  0
   -3.1350   -4.0140   -0.3690 C   0  0
   -0.1350   -4.8810   -3.3240 C   0  0
    1.3440   -3.0680   -2.4360 C   0  0
   -3.0330   -2.0220    3.5120 F   0  0
   -1.3050   -1.1900    4.6660 F   0  0
   -1.2810   -3.3260    3.9980 F   0  0
   -0.2990    0.3280    1.1560 O   0  0
   -1.3260   -5.6270   -3.2910 C   0  0
   -0.1950    1.6620    1.0760 C   0  0
   -1.5530   -6.7150   -4.2750 C   0  0
    0.9880    2.4450    0.9670 C   0  0
   -1.4380    2.3570    1.1040 C   0  0
    0.9140    3.8240    0.8950 C   0  0
    2.2440    1.8630    0.9320 C   0  0
   -1.5000    3.7750    1.0270 C   0  0
    2.2190    4.1820    0.8030 N   0  0
   -0.3090    4.5310    0.9200 C   0  0
    2.9730    3.0290    0.8260 N   0  0
    2.7150    5.4430    0.7050 C   0  0
    2.1820    6.4750    1.5020 C   0  0
    3.7620    5.7250   -0.1930 C   0  0
    2.6950    7.7790    1.4000 C   0  0
    4.2730    7.0290   -0.2930 C   0  0
    3.7400    8.0590    0.5040 C   0  0
    4.2270    9.2930    0.4080 F   0  0
   -1.0760   -3.5240    1.6170 H   0  0
    0.0820   -1.7620    2.4260 H   0  0
   -1.4880    0.4240    2.8140 H   0  0
   -2.2640   -0.2010    1.3400 H   0  0
   -3.2230   -5.9120   -2.2950 H   0  0
   -3.3010   -2.9510   -0.1930 H   0  0
   -2.8540   -4.4690    0.5820 H   0  0
   -4.0840   -4.4530   -0.6800 H   0  0
    0.6170   -5.1020   -4.0680 H   0  0
    1.9240   -3.2010   -3.3500 H   0  0
    1.9770   -3.3520   -1.5960 H   0  0
    1.1170   -2.0060   -2.3380 H   0  0
   -0.7320   -6.7310   -4.9940 H   0  0
   -1.6700   -7.6620   -3.7500 H   0  0
   -2.4730   -6.5240   -4.8260 H   0  0
   -2.3590    1.7990    1.1860 H   0  0
    2.5980    0.8400    0.9690 H   0  0
   -2.4550    4.2750    1.0510 H   0  0
   -0.3380    5.6090    0.8610 H   0  0
    1.3770    6.2810    2.1990 H   0  0
    4.1860    4.9470   -0.8140 H   0  0
    2.2830    8.5670    2.0160 H   0  0
    5.0780    7.2380   -0.9820 H   0  0
  1  2  2  0
  1  3  2  0
  1  4  1  0
  1  5  1  0
  6  4  1  0
  5  7  2  0
  5  8  1  0
  6  9  1  0
  6 10  1  0
  7 11  1  0
  7 12  1  0
  8 13  2  0
  8 14  1  0
  9 15  1  0
  9 16  1  0
  9 17  1  0
 10 18  1  0
 11 19  2  0
 18 20  1  0
 19 21  1  0
 20 22  2  0
 20 23  1  0
 22 24  1  0
 22 25  1  0
 23 26  2  0
 24 27  1  0
 24 28  2  0
 25 29  2  0
 27 30  1  0
 30 31  2  0
 30 32  1  0
 31 33  1  0
 32 34  2  0
 33 35  2  0
 35 36  1  0
 13 19  1  0
 26 28  1  0
 27 29  1  0
 34 35  1  0
  4 37  1  0
  6 38  1  0
 10 39  1  0
 10 40  1  0
 11 41  1  0
 12 42  1  0
 12 43  1  0
 12 44  1  0
 13 45  1  0
 14 46  1  0
 14 47  1  0
 14 48  1  0
 21 49  1  0
 21 50  1  0
 21 51  1  0
 23 52  1  0
 25 53  1  0
 26 54  1  0
 28 55  1  0
 31 56  1  0
 32 57  1  0
 33 58  1  0
 34 59  1  0
M  END
> <Name>
CHEMBL3261423

> <IC50 nM>
14

> <Molecule_ChEMBL_ID>
CHEMBL3261423

> <Smiles>
Cc1cc(C)c(S(=O)(=O)NC(COc2cccc3c2cnn3-c2ccc(F)cc2)C(F)(F)F)c(C)c1

$$$$
CHEMBL501080
  SciTegic08162514323D

 45 48  0  0  1  0            999 V2000
   -5.0800   -1.6760   -3.4920 F   0  0
   -4.5220   -1.0230   -2.4690 C   0  0
   -5.1800    0.0660   -1.8750 C   0  0
   -3.2640   -1.4360   -1.9840 C   0  0
   -4.5800    0.7420   -0.7990 C   0  0
   -2.6700   -0.7520   -0.9060 C   0  0
   -5.2520    1.8550   -0.1890 C   0  0
   -3.3260    0.3400   -0.3110 C   0  0
   -1.3710   -1.1780   -0.4080 C   0  0
   -5.7950    2.7560    0.3030 N   0  0
   -0.4000   -0.2250   -0.0270 C   0  0
   -1.0630   -2.5470   -0.2970 C   0  0
    0.8850   -0.5960    0.4690 C   0  0
    0.1990   -2.9490    0.1800 C   0  0
    1.1990   -2.0060    0.5630 C   0  0
    1.7680    0.5680    0.8500 C   0  0  1  0  0  0
    2.3730   -2.5590    0.9920 N   0  0
    3.0270    0.2730    1.4320 O   0  0
    2.0060    1.4430   -0.3730 C   0  0
    1.0820    1.4200    1.9260 C   0  0
    3.6210   -1.9860    1.0700 C   0  0
    3.8810   -0.5610    0.6780 C   0  0
    1.8380    0.9650   -1.6410 O   0  0
    2.4080    2.7810   -0.3630 C   0  0
    0.6700    0.6040    3.1500 C   0  0
    4.5470   -2.6540    1.4730 O   0  0
    2.1410    2.0270   -2.4410 C   0  0
    2.4940    3.1600   -1.7030 C   0  0
   -6.1390    0.3670   -2.2540 H   0  0
   -2.7620   -2.2770   -2.4470 H   0  0
   -2.8650    0.8650    0.5220 H   0  0
   -0.6470    0.8240   -0.1150 H   0  0
   -1.7850   -3.3010   -0.5760 H   0  0
    0.3830   -4.0140    0.2440 H   0  0
    2.3530   -3.5220    1.2740 H   0  0
    1.7190    2.2560    2.2170 H   0  0
    0.2260    1.9510    1.5100 H   0  0
    4.9020   -0.2950    0.9450 H   0  0
    3.7730   -0.4120   -0.3960 H   0  0
    2.6090    3.3980    0.5020 H   0  0
    0.2340    1.2460    3.9140 H   0  0
   -0.0550   -0.1640    2.8770 H   0  0
    1.5330    0.1040    3.5900 H   0  0
    2.1070    1.9860   -3.5210 H   0  0
    2.7770    4.1310   -2.0900 H   0  0
  1  2  1  0
  2  3  2  0
  2  4  1  0
  3  5  1  0
  4  6  2  0
  5  7  1  0
  5  8  2  0
  6  9  1  0
  7 10  3  0
  9 11  2  0
  9 12  1  0
 11 13  1  0
 12 14  2  0
 13 15  2  0
 13 16  1  0
 15 17  1  0
 16 18  1  0
 16 19  1  0
 16 20  1  0
 17 21  1  0
 18 22  1  0
 19 23  1  0
 19 24  2  0
 20 25  1  0
 21 26  2  0
 23 27  1  0
 24 28  1  0
  6  8  1  0
 14 15  1  0
 21 22  1  0
 27 28  2  0
  3 29  1  0
  4 30  1  0
  8 31  1  0
 11 32  1  0
 12 33  1  0
 14 34  1  0
 17 35  1  0
 20 36  1  0
 20 37  1  0
 22 38  1  0
 22 39  1  0
 24 40  1  0
 25 41  1  0
 25 42  1  0
 25 43  1  0
 27 44  1  0
 28 45  1  0
M  END
> <Name>
CHEMBL501080

> <IC50 nM>
190

> <Molecule_ChEMBL_ID>
CHEMBL501080

> <Smiles>
CCC1(c2ccco2)OCC(=O)Nc2ccc(-c3cc(F)cc(C#N)c3)cc21

$$$$
CHEMBL27769
  SciTegic08162514323D

 51 54  0  0  1  0            999 V2000
    5.7460   -0.2810    1.3130 O   0  0
    4.7190   -0.3110    0.6760 C   0  0
    3.7480   -1.4590    0.7810 C   0  0
    4.3320    0.8050   -0.2620 C   0  0
    2.3010   -0.9710    0.9860 C   0  0  1  0  0  0
    2.8730    1.2460   -0.0570 C   0  0
    1.8690    0.0680   -0.0880 C   0  0  2  0  0  0
    1.3180   -2.1520    1.0760 C   0  0
    0.4240    0.5530    0.2290 C   0  0  2  0  0  0
    1.9040   -0.5740   -1.4840 C   0  0
   -0.1130   -1.6780    1.3420 C   0  0
   -0.5610   -0.6460    0.2950 C   0  0  1  0  0  0
   -0.0880    1.6560   -0.7290 C   0  0
   -1.9610   -0.1090    0.6330 C   0  0  1  0  0  0
   -1.5330    2.0940   -0.4220 C   0  0
   -2.4550    0.8690   -0.4390 C   0  0  2  0  0  0
   -3.1000   -1.1270    0.7010 C   0  0
   -3.8610    1.1090    0.1230 C   0  0  2  0  0  0
   -2.5100    0.2190   -1.8340 C   0  0
   -4.3670   -0.2970    0.4690 C   0  0
   -4.7110    1.7520   -0.8070 O   0  0
    3.8180   -2.0620   -0.1250 H   0  0
    4.0410   -2.1090    1.6070 H   0  0
    4.4750    0.4650   -1.2870 H   0  0
    5.0000    1.6540   -0.1230 H   0  0
    2.2750   -0.4670    1.9550 H   0  0
    2.6310    1.9790   -0.8260 H   0  0
    2.7890    1.7700    0.8960 H   0  0
    1.6270   -2.8340    1.8710 H   0  0
    1.3460   -2.7290    0.1500 H   0  0
    0.4490    1.0000    1.2250 H   0  0
    1.2050   -1.4060   -1.5680 H   0  0
    2.9000   -0.9510   -1.7110 H   0  0
    1.6430    0.1580   -2.2500 H   0  0
   -0.7870   -2.5350    1.3440 H   0  0
   -0.1660   -1.2360    2.3380 H   0  0
   -0.5900   -1.1410   -0.6760 H   0  0
   -0.0250    1.3090   -1.7600 H   0  0
    0.5510    2.5350   -0.6660 H   0  0
   -1.9060    0.3950    1.5900 H   0  0
   -1.8650    2.8320   -1.1500 H   0  0
   -1.5680    2.5820    0.5530 H   0  0
   -2.9920   -1.8730   -0.0720 H   0  0
   -3.1210   -1.6450    1.6500 H   0  0
   -3.8200    1.7230    1.0140 H   0  0
   -1.5160   -0.1000   -2.1480 H   0  0
   -3.1760   -0.6430   -1.8300 H   0  0
   -2.8850    0.9260   -2.5740 H   0  0
   -4.9980   -0.2750    1.3460 H   0  0
   -4.9450   -0.7360   -0.3340 H   0  0
   -4.3650    2.6490   -0.9390 H   0  0
  1  2  2  0
  2  3  1  0
  2  4  1  0
  5  3  1  0
  4  6  1  0
  5  7  1  0
  5  8  1  0
  7  9  1  0
  7 10  1  0
  8 11  1  0
  9 12  1  0
  9 13  1  0
 12 14  1  0
 13 15  1  0
 14 16  1  0
 14 17  1  0
 16 18  1  0
 16 19  1  0
 17 20  1  0
 18 21  1  0
  6  7  1  0
 12 11  1  0
 15 16  1  0
 18 20  1  0
  3 22  1  0
  3 23  1  0
  4 24  1  0
  4 25  1  0
  5 26  1  0
  6 27  1  0
  6 28  1  0
  8 29  1  0
  8 30  1  0
  9 31  1  0
 10 32  1  0
 10 33  1  0
 10 34  1  0
 11 35  1  0
 11 36  1  0
 12 37  1  0
 13 38  1  0
 13 39  1  0
 14 40  1  0
 15 41  1  0
 15 42  1  0
 17 43  1  0
 17 44  1  0
 18 45  1  0
 19 46  1  0
 19 47  1  0
 19 48  1  0
 20 49  1  0
 20 50  1  0
 21 51  1  0
M  END
> <Name>
CHEMBL27769

> <IC50 nM>
540

> <Molecule_ChEMBL_ID>
CHEMBL27769

> <Smiles>
C[C@]12CCC(=O)C[C@@H]1CC[C@@H]1[C@@H]2CC[C@]2(C)[C@@H](O)CC[C@@H]12

$$$$
CHEMBL1684350
  SciTegic08162514323D

 63 67  0  0  1  0            999 V2000
   -1.1520    3.0470   -6.0250 Cl  0  0
   -2.1430    2.5100   -4.7290 C   0  0
   -3.3460    3.1800   -4.4180 C   0  0
   -1.7460    1.3910   -3.9730 C   0  0
   -3.7360    4.2310   -5.1110 O   0  0
   -4.1430    2.7190   -3.3550 C   0  0
   -2.5470    0.9360   -2.9080 C   0  0
   -5.0430    4.7360   -4.8750 C   0  0
   -3.7460    1.6020   -2.6020 C   0  0
   -2.1580   -0.1520   -2.1720 N   0  0
   -2.3240   -0.1540   -0.8160 C   0  0
   -2.8130    0.8010   -0.2600 O   0  0
   -1.9180   -1.2520   -0.1860 O   0  0
   -2.0450   -1.1430    1.2310 C   0  0  1  0  0  0
   -2.0180   -2.5550    1.8590 C   0  0
   -0.9100   -0.2440    1.7580 C   0  0  2  0  0  0
   -0.6490   -3.1350    1.7770 N   0  0
   -3.0000   -3.4770    1.1250 C   0  0
   -2.4280   -2.4960    3.3360 C   0  0
    0.4060   -0.9410    1.7110 C   0  0
   -1.1930    0.2640    3.1760 C   0  0
    0.4750   -2.3710    1.7270 C   0  0
    1.6070   -0.1800    1.6540 C   0  0
    1.7440   -3.0080    1.6860 C   0  0
    1.5410    1.1540    1.6430 F   0  0
    2.8650   -0.8340    1.6110 C   0  0
    2.9340   -2.2500    1.6290 C   0  0
    4.0920   -0.0510    1.5530 C   0  0
    4.1050   -2.8850    1.5920 F   0  0
    4.9570   -0.1250    0.4300 C   0  0
    4.4380    0.8090    2.6290 C   0  0
    4.8930   -0.8550   -0.7500 N   0  0
    6.1130    0.6150    0.3730 C   0  0
    5.6330    1.5720    2.5660 C   0  0
    6.0410   -0.5310   -1.5100 C   0  0
    6.7990    0.4000   -0.7770 C   0  0
    6.4820    1.4830    1.4340 C   0  0
    8.2830    1.1000   -1.2790 Cl  0  0
   -0.8220    0.8810   -4.2130 H   0  0
   -5.0670    3.2270   -3.1150 H   0  0
   -5.2070    5.5800   -5.5450 H   0  0
   -5.7480    3.9100   -4.9590 H   0  0
   -5.0860    5.1100   -3.8520 H   0  0
   -4.3770    1.2680   -1.7870 H   0  0
   -1.7540   -0.9430   -2.6310 H   0  0
   -3.0100   -0.6680    1.4180 H   0  0
   -0.8690    0.6310    1.1070 H   0  0
   -0.5720   -4.1350    1.7660 H   0  0
   -2.7340   -3.6000    0.0740 H   0  0
   -4.0120   -3.0740    1.1680 H   0  0
   -3.0140   -4.4670    1.5820 H   0  0
   -1.6060   -2.1660    3.9710 H   0  0
   -2.7460   -3.4780    3.6860 H   0  0
   -3.2580   -1.8050    3.4790 H   0  0
   -0.8240    1.2770    3.3260 H   0  0
   -0.7170   -0.3770    3.9180 H   0  0
   -2.2660    0.2660    3.3770 H   0  0
    1.8160   -4.0880    1.6950 H   0  0
    3.8030    0.8890    3.5000 H   0  0
    4.1760   -1.4900   -1.0180 H   0  0
    5.8970    2.2250    3.3850 H   0  0
    6.2600   -0.9530   -2.4820 H   0  0
    7.3890    2.0680    1.3970 H   0  0
  1  2  1  0
  2  3  2  0
  2  4  1  0
  3  5  1  0
  3  6  1  0
  4  7  2  0
  5  8  1  0
  6  9  2  0
  7 10  1  0
 10 11  1  0
 11 12  2  0
 11 13  1  0
 14 13  1  0
 14 15  1  0
 14 16  1  0
 15 17  1  0
 15 18  1  0
 15 19  1  0
 16 20  1  0
 16 21  1  0
 17 22  1  0
 20 23  2  0
 22 24  2  0
 23 25  1  0
 23 26  1  0
 24 27  1  0
 26 28  1  0
 27 29  1  0
 28 30  2  0
 28 31  1  0
 30 32  1  0
 30 33  1  0
 31 34  2  0
 32 35  1  0
 33 36  1  0
 33 37  2  0
 36 38  1  0
  7  9  1  0
 20 22  1  0
 26 27  2  0
 34 37  1  0
 35 36  2  0
  4 39  1  0
  6 40  1  0
  8 41  1  0
  8 42  1  0
  8 43  1  0
  9 44  1  0
 10 45  1  0
 14 46  1  0
 16 47  1  0
 17 48  1  0
 18 49  1  0
 18 50  1  0
 18 51  1  0
 19 52  1  0
 19 53  1  0
 19 54  1  0
 21 55  1  0
 21 56  1  0
 21 57  1  0
 24 58  1  0
 31 59  1  0
 32 60  1  0
 34 61  1  0
 35 62  1  0
 37 63  1  0
M  END
> <Name>
CHEMBL1684350

> <IC50 nM>
12

> <Molecule_ChEMBL_ID>
CHEMBL1684350

> <Smiles>
COc1ccc(NC(=O)O[C@@H]2[C@@H](C)c3c(cc(F)c(-c4cccc5c(Cl)c[nH]c45)c3F)NC2(C)C)cc1Cl

$$$$
CHEMBL1684341
  SciTegic08162514323D

 52 55  0  0  1  0            999 V2000
    6.1720    3.8600   -2.2070 Cl  0  0
    4.9180    2.8010   -1.7090 C   0  0
    4.8320    2.0760   -0.5640 C   0  0
    3.7480    2.5140   -2.4360 C   0  0
    3.6760    1.3340   -0.5080 C   0  0
    5.7810    2.0350    0.4900 C   0  0
    2.9770    1.5980   -1.6800 N   0  0
    3.3890    0.5020    0.6060 C   0  0
    5.5160    1.2090    1.6130 C   0  0
    2.1600   -0.2830    0.6640 C   0  0
    4.3220    0.4410    1.6740 C   0  0
    0.9020    0.3710    0.7070 C   0  0
    2.2310   -1.6970    0.6820 C   0  0
    0.8380    1.7050    0.6950 F   0  0
   -0.2970   -0.3910    0.7640 C   0  0
    3.4030   -2.3340    0.6450 F   0  0
    1.0390   -2.4570    0.7380 C   0  0
   -0.2280   -1.8180    0.7790 C   0  0
   -1.6130    0.3090    0.8110 C   0  0  1  0  0  0
   -1.3510   -2.5840    0.8300 N   0  0
   -2.7500   -0.5920    0.2830 C   0  0  2  0  0  0
   -1.8960    0.8150    2.2290 C   0  0
   -2.7210   -2.0040    0.9120 C   0  0
   -2.6210   -0.7010   -1.1310 O   0  0
   -3.7030   -2.9260    0.1780 C   0  0
   -3.1310   -1.9450    2.3890 C   0  0
   -3.0250    0.3990   -1.7640 C   0  0
   -3.5120    1.3540   -1.2070 O   0  0
   -2.8610    0.4000   -3.1190 N   0  0
   -3.2810    1.5740   -3.8970 C   0  0
    3.4490    2.9010   -3.4000 H   0  0
    6.6920    2.6150    0.4530 H   0  0
    2.0980    1.2170   -1.9450 H   0  0
    6.2270    1.1640    2.4240 H   0  0
    4.1390   -0.1840    2.5370 H   0  0
    1.1110   -3.5350    0.7500 H   0  0
   -1.5720    1.1840    0.1600 H   0  0
   -1.2750   -3.5840    0.8180 H   0  0
   -3.7130   -0.1170    0.4710 H   0  0
   -1.5310    1.8300    2.3790 H   0  0
   -1.4180    0.1760    2.9710 H   0  0
   -2.9690    0.8150    2.4320 H   0  0
   -3.4370   -3.0470   -0.8730 H   0  0
   -4.7150   -2.5230    0.2230 H   0  0
   -3.7170   -3.9160    0.6350 H   0  0
   -2.3100   -1.6110    3.0240 H   0  0
   -3.4470   -2.9260    2.7400 H   0  0
   -3.9630   -1.2560    2.5290 H   0  0
   -2.4590   -0.3930   -3.5780 H   0  0
   -3.0270    1.4200   -4.9450 H   0  0
   -4.3420    1.7560   -3.7270 H   0  0
   -2.7340    2.4490   -3.5450 H   0  0
  1  2  1  0
  2  3  1  0
  2  4  2  0
  3  5  1  0
  3  6  2  0
  4  7  1  0
  5  8  2  0
  6  9  1  0
  8 10  1  0
  8 11  1  0
 10 12  2  0
 10 13  1  0
 12 14  1  0
 12 15  1  0
 13 16  1  0
 13 17  2  0
 15 18  2  0
 15 19  1  0
 18 20  1  0
 19 21  1  0
 19 22  1  0
 20 23  1  0
 21 24  1  0
 23 25  1  0
 23 26  1  0
 24 27  1  0
 27 28  2  0
 27 29  1  0
 29 30  1  0
  5  7  1  0
  9 11  2  0
 17 18  1  0
 21 23  1  0
  4 31  1  0
  6 32  1  0
  7 33  1  0
  9 34  1  0
 11 35  1  0
 17 36  1  0
 19 37  1  0
 20 38  1  0
 21 39  1  0
 22 40  1  0
 22 41  1  0
 22 42  1  0
 25 43  1  0
 25 44  1  0
 25 45  1  0
 26 46  1  0
 26 47  1  0
 26 48  1  0
 29 49  1  0
 30 50  1  0
 30 51  1  0
 30 52  1  0
M  END
> <Name>
CHEMBL1684341

> <IC50 nM>
52

> <Molecule_ChEMBL_ID>
CHEMBL1684341

> <Smiles>
CNC(=O)O[C@@H]1[C@@H](C)c2c(cc(F)c(-c3cccc4c(Cl)c[nH]c34)c2F)NC1(C)C

$$$$
CHEMBL3233270
  SciTegic08162514323D

 54 56  0  0  1  0            999 V2000
   -0.0410   -4.1820    3.5330 F   0  0
   -0.4280   -3.7580    2.3320 C   0  0
   -1.0310   -2.4940    2.1930 C   0  0
   -0.2320   -4.5700    1.2030 C   0  0
   -1.4390   -2.0470    0.9240 C   0  0
   -0.6410   -4.1230   -0.0640 C   0  0
   -1.2440   -2.8610   -0.2090 C   0  0
   -2.0760   -0.7090    0.7870 C   0  0
   -1.6230   -2.4490   -1.4020 O   0  0
   -0.8140   -0.0390    0.2420 C   0  0
   -2.5020   -0.1460    2.1450 C   0  0
   -3.2190   -0.7300   -0.2290 C   0  0
   -1.3380   -3.2850   -2.5160 C   0  0
   -0.9840    1.4690    0.0450 C   0  0  2  0  0  0
   -2.3630    1.7520   -0.0160 O   0  0
   -0.3360    1.9710   -1.2460 C   0  0
   -0.4120    2.1390    1.2930 C   0  0
    1.1720    1.8590   -1.1800 C   0  0
   -0.5410    3.6620    1.2580 C   0  0
    2.0330    2.9840   -1.1050 N   0  0
    1.9630    0.6910   -1.1820 C   0  0
    3.3260    2.4900   -1.0610 C   0  0
    3.2400    1.1210   -1.1090 C   0  0
    4.6020    3.0840   -0.9790 C   0  0
    4.4140    0.3140   -1.0820 C   0  0
    5.7760    2.3630   -0.9470 N   0  0
    5.6760    0.9770   -1.0000 C   0  0
   -1.1800   -1.8710    3.0630 H   0  0
    0.2310   -5.5410    1.3070 H   0  0
   -0.4900   -4.7500   -0.9300 H   0  0
    0.0430   -0.2480    0.8830 H   0  0
   -0.4940   -0.5160   -0.6860 H   0  0
   -1.6460    0.0370    2.7950 H   0  0
   -3.1680   -0.8420    2.6560 H   0  0
   -3.0350    0.7950    2.0220 H   0  0
   -2.8790   -0.4610   -1.2290 H   0  0
   -4.0020   -0.0270    0.0590 H   0  0
   -3.6640   -1.7230   -0.2850 H   0  0
   -0.2950   -3.5590   -2.6680 H   0  0
   -1.6840   -2.7790   -3.4180 H   0  0
   -1.9140   -4.2050   -2.4080 H   0  0
   -2.4530    2.6780   -0.2870 H   0  0
   -0.6150    3.0080   -1.4380 H   0  0
   -0.7050    1.4140   -2.1060 H   0  0
   -0.8750    1.7340    2.1930 H   0  0
    0.6250    1.8440    1.4490 H   0  0
   -0.0180    4.0720    0.3930 H   0  0
   -1.5880    3.9590    1.2130 H   0  0
   -0.1050    4.1070    2.1520 H   0  0
    1.7620    3.9400   -1.0880 H   0  0
    1.6110   -0.3320   -1.2320 H   0  0
    4.6640    4.1620   -0.9390 H   0  0
    4.3580   -0.7640   -1.1230 H   0  0
    6.5780    0.3850   -0.9770 H   0  0
  1  2  1  0
  2  3  2  0
  2  4  1  0
  3  5  1  0
  4  6  2  0
  5  7  2  0
  5  8  1  0
  7  9  1  0
  8 10  1  0
  8 11  1  0
  8 12  1  0
  9 13  1  0
 10 14  1  0
 14 15  1  0
 14 16  1  0
 14 17  1  0
 16 18  1  0
 17 19  1  0
 18 20  1  0
 18 21  2  0
 20 22  1  0
 21 23  1  0
 22 24  1  0
 23 25  1  0
 24 26  2  0
 25 27  2  0
  6  7  1  0
 22 23  2  0
 26 27  1  0
  3 28  1  0
  4 29  1  0
  6 30  1  0
 10 31  1  0
 10 32  1  0
 11 33  1  0
 11 34  1  0
 11 35  1  0
 12 36  1  0
 12 37  1  0
 12 38  1  0
 13 39  1  0
 13 40  1  0
 13 41  1  0
 15 42  1  0
 16 43  1  0
 16 44  1  0
 17 45  1  0
 17 46  1  0
 19 47  1  0
 19 48  1  0
 19 49  1  0
 20 50  1  0
 21 51  1  0
 24 52  1  0
 25 53  1  0
 27 54  1  0
M  END
> <Name>
CHEMBL3233270

> <IC50 nM>
220

> <Molecule_ChEMBL_ID>
CHEMBL3233270

> <Smiles>
CCC(O)(Cc1cc2ccncc2[nH]1)CC(C)(C)c1cc(F)ccc1OC

$$$$
CHEMBL194012
  SciTegic08162514323D

 49 53  0  0  1  0            999 V2000
   -7.4840   -2.9490    1.2620 F   0  0
   -6.4820   -2.1370    0.9340 C   0  0
   -5.2750   -2.1840    1.6520 C   0  0
   -6.6310   -1.2300   -0.1290 C   0  0
   -4.2150   -1.3260    1.3090 C   0  0
   -5.5720   -0.3710   -0.4750 C   0  0
   -4.3610   -0.4180    0.2420 C   0  0
   -3.3400    0.4120   -0.0900 N   0  0
   -3.4770    1.7360   -0.3770 N   0  0
   -2.0310    0.0590   -0.1880 C   0  0
   -2.2990    2.3440   -0.6880 C   0  0
   -1.4370    1.2560   -0.5640 C   0  0
   -1.3030   -1.2110    0.0120 C   0  0
    0.0700    1.2580   -0.8200 C   0  0
    0.0470   -1.1330    0.0230 C   0  0
    0.7910    0.1910    0.0590 C   0  0  1  0  0  0
    0.9840   -2.2970   -0.0370 C   0  0
    2.2250   -0.2440   -0.3890 C   0  0
    0.7680    0.6860    1.5140 C   0  0
    2.1310   -1.7150   -0.8610 C   0  0
    2.7680    0.5680   -1.4180 O   0  0
    3.1900   -0.1450    0.6520 O   0  0
    3.7810    1.3980   -0.8980 C   0  0  1  0  0  0
    4.3560    0.4960    0.1860 C   0  0  1  0  0  0
    4.7600    1.7660   -2.0040 C   0  0
    5.0270    1.2380    1.3340 C   0  0
   -5.1560   -2.8810    2.4710 H   0  0
   -7.5570   -1.1890   -0.6840 H   0  0
   -3.2950   -1.3790    1.8730 H   0  0
   -5.7070    0.3200   -1.2970 H   0  0
   -2.1330    3.3790   -0.9530 H   0  0
   -1.8220   -2.1520    0.1250 H   0  0
    0.2170    1.0370   -1.8790 H   0  0
    0.4860    2.2500   -0.6460 H   0  0
    0.5350   -3.1560   -0.5140 H   0  0
    1.3050   -2.5700    0.9570 H   0  0
    1.1560   -0.0630    2.2030 H   0  0
   -0.2500    0.9260    1.8220 H   0  0
    1.3690    1.5860    1.6250 H   0  0
    3.0510   -2.2730   -0.7400 H   0  0
    1.8670   -1.7640   -1.9100 H   0  0
    3.3130    2.2770   -0.4750 H   0  0
    5.0080   -0.2580   -0.2340 H   0  0
    4.2830    2.3560   -2.7890 H   0  0
    5.1740    0.8710   -2.4670 H   0  0
    5.5880    2.3520   -1.6070 H   0  0
    5.3520    0.5390    2.1060 H   0  0
    5.8910    1.8010    0.9790 H   0  0
    4.3360    1.9430    1.7950 H   0  0
  1  2  1  0
  2  3  2  0
  2  4  1  0
  3  5  1  0
  4  6  2  0
  5  7  2  0
  7  8  1  0
  8  9  1  0
  8 10  1  0
  9 11  2  0
 10 12  2  0
 10 13  1  0
 12 14  1  0
 13 15  2  0
 14 16  1  0
 15 17  1  0
 16 18  1  0
 16 19  1  0
 17 20  1  0
 18 21  1  0
 18 22  1  0
 21 23  1  0
 22 24  1  0
 23 25  1  0
 24 26  1  0
  6  7  1  0
 11 12  1  0
 15 16  1  0
 18 20  1  0
 23 24  1  0
  3 27  1  0
  4 28  1  0
  5 29  1  0
  6 30  1  0
 11 31  1  0
 13 32  1  0
 14 33  1  0
 14 34  1  0
 17 35  1  0
 17 36  1  0
 19 37  1  0
 19 38  1  0
 19 39  1  0
 20 40  1  0
 20 41  1  0
 23 42  1  0
 24 43  1  0
 25 44  1  0
 25 45  1  0
 25 46  1  0
 26 47  1  0
 26 48  1  0
 26 49  1  0
M  END
> <Name>
CHEMBL194012

> <IC50 nM>
24

> <Molecule_ChEMBL_ID>
CHEMBL194012

> <Smiles>
C[C@H]1OC2(CCC3=Cc4c(cnn4-c4ccc(F)cc4)C[C@@]32C)O[C@@H]1C

$$$$
CHEMBL3901337
  SciTegic08162514323D

 56 60  0  0  1  0            999 V2000
    6.5530    5.9340   -1.7690 F   0  0
    6.0650    4.6970   -1.6740 C   0  0
    6.6020    3.6660   -2.4650 C   0  0
    5.0120    4.4240   -0.7830 C   0  0
    6.0880    2.3630   -2.3650 C   0  0
    4.4960    3.1210   -0.6820 C   0  0
    5.0330    2.0860   -1.4730 C   0  0
    4.5350    0.8260   -1.3750 N   0  0
    5.2850   -0.3300   -1.3510 N   0  0
    3.2290    0.4710   -1.2830 C   0  0
    4.5550   -1.4960   -1.2460 C   0  0
    3.3030   -0.9060   -1.2110 C   0  0
    2.0060    1.1820   -1.2580 C   0  0
    2.1050   -1.6620   -1.1030 C   0  0
    0.8090    0.4320   -1.1500 C   0  0
    0.8570   -0.9860   -1.0720 C   0  0
   -0.2790   -1.6890   -0.9710 O   0  0
   -1.4220   -1.0350   -0.4390 C   0  0  2  0  0  0
   -1.0980   -0.4820    0.9020 C   0  0
   -2.5900   -2.0190   -0.3750 C   0  0  1  0  0  0
   -1.4710    0.8340    1.2310 C   0  0
   -0.4180   -1.2750    1.8440 C   0  0
   -3.8260   -1.3460    0.0470 N   0  0
   -2.7990   -2.7750   -1.6870 C   0  0
   -1.1640    1.3560    2.4980 C   0  0
   -0.1110   -0.7520    3.1120 C   0  0
   -4.8240   -2.0740    0.6270 C   0  0
   -0.4820    0.5630    3.4400 C   0  0
   -4.6920   -3.2660    0.7950 O   0  0
   -6.0860   -1.3500    1.0530 C   0  0
   -6.9690   -1.9630    2.1190 C   0  0
   -6.1560   -0.7250    2.4300 C   0  0
    7.4100    3.8730   -3.1500 H   0  0
    4.5980    5.2130   -0.1740 H   0  0
    6.5140    1.5820   -2.9800 H   0  0
    3.6880    2.9300    0.0100 H   0  0
    4.9080   -2.5190   -1.2090 H   0  0
    1.9820    2.2600   -1.3160 H   0  0
    2.1330   -2.7420   -1.0430 H   0  0
   -0.1430    0.9410   -1.1290 H   0  0
   -1.6930   -0.2210   -1.1110 H   0  0
   -2.3710   -2.8320    0.3190 H   0  0
   -1.9940    1.4470    0.5120 H   0  0
   -0.1270   -2.2850    1.5980 H   0  0
   -3.9380   -0.3610   -0.0900 H   0  0
   -3.6130   -3.4920   -1.5960 H   0  0
   -3.0250   -2.0820   -2.4980 H   0  0
   -1.8990   -3.3260   -1.9630 H   0  0
   -1.4490    2.3650    2.7500 H   0  0
    0.4120   -1.3610    3.8340 H   0  0
   -0.2480    0.9650    4.4140 H   0  0
   -6.5980   -0.8120    0.2540 H   0  0
   -8.0490   -1.8460    2.0100 H   0  0
   -6.6560   -2.9040    2.5720 H   0  0
   -6.6900    0.2210    2.5290 H   0  0
   -5.2950   -0.8360    3.0900 H   0  0
  1  2  1  0
  2  3  2  0
  2  4  1  0
  3  5  1  0
  4  6  2  0
  5  7  2  0
  7  8  1  0
  8  9  1  0
  8 10  1  0
  9 11  2  0
 10 12  1  0
 10 13  2  0
 12 14  2  0
 13 15  1  0
 14 16  1  0
 16 17  1  0
 18 17  1  0
 18 19  1  0
 18 20  1  0
 19 21  2  0
 19 22  1  0
 20 23  1  0
 20 24  1  0
 21 25  1  0
 22 26  2  0
 23 27  1  0
 25 28  2  0
 27 29  2  0
 27 30  1  0
 30 31  1  0
 30 32  1  0
  6  7  1  0
 11 12  1  0
 15 16  2  0
 26 28  1  0
 31 32  1  0
  3 33  1  0
  4 34  1  0
  5 35  1  0
  6 36  1  0
 11 37  1  0
 13 38  1  0
 14 39  1  0
 15 40  1  0
 18 41  1  0
 20 42  1  0
 21 43  1  0
 22 44  1  0
 23 45  1  0
 24 46  1  0
 24 47  1  0
 24 48  1  0
 25 49  1  0
 26 50  1  0
 28 51  1  0
 30 52  1  0
 31 53  1  0
 31 54  1  0
 32 55  1  0
 32 56  1  0
M  END
> <Name>
CHEMBL3901337

> <IC50 nM>
0.62

> <Molecule_ChEMBL_ID>
CHEMBL3901337

> <Smiles>
C[C@H](NC(=O)C1CC1)[C@H](Oc1ccc2c(cnn2-c2ccc(F)cc2)c1)c1ccccc1

$$$$
CHEMBL3358953
  SciTegic08162514323D

 60 62  0  0  1  0            999 V2000
    5.9650   -1.0900   -1.5760 S   0  0
    5.9340   -1.9300   -0.3910 O   0  0
    6.0490   -1.8480   -2.8130 O   0  0
    4.5290   -0.1580   -1.6130 C   0  0
    7.3730    0.0060   -1.4730 C   0  0
    4.6210    1.2290   -1.5610 N   0  0
    3.2700   -0.8260   -1.6950 C   0  0
    8.6740   -0.7990   -1.4370 C   0  0
    3.4430    1.9430   -1.5940 C   0  0
    2.0920   -0.0250   -1.7230 C   0  0
    2.1700    1.3440   -1.6740 C   0  0
    0.8160   -0.4610   -1.7970 C   0  0
    0.8770    1.8320   -1.7190 N   0  0
    0.0220    0.7030   -1.7950 C   0  0
   -1.4880    0.8090   -1.8590 C   0  0
   -2.0430    1.5610   -0.6500 C   0  0  1  0  0  0
   -1.0060    1.7030    0.2950 O   0  0
   -2.4340    2.9550   -1.1450 C   0  0
   -3.2030    0.8260    0.0200 C   0  0
   -1.3520    3.5490   -1.7400 F   0  0
   -2.8500    3.7170   -0.0840 F   0  0
   -3.4530    2.8460   -2.0570 F   0  0
   -2.8380   -0.6000    0.4360 C   0  0
   -3.6680   -0.5700    1.6720 C   0  0
   -3.3380   -1.6500   -0.5550 C   0  0
   -1.3520   -0.7560    0.7620 C   0  0
   -3.2340   -1.2110    2.8500 C   0  0
   -4.9000    0.1080    1.6560 C   0  0
   -1.9280   -1.9370    2.8890 C   0  0
   -4.0370   -1.1700    4.0060 C   0  0
   -5.6990    0.1490    2.8110 C   0  0
   -1.7970   -3.0120    2.3520 O   0  0
   -0.8770   -1.3630    3.5470 N   0  0
   -5.2680   -0.4900    3.9860 C   0  0
    7.3650    0.6900   -2.3200 H   0  0
    7.2830    0.6310   -0.5840 H   0  0
    3.2150   -1.9040   -1.7340 H   0  0
    9.5370   -0.1350   -1.3750 H   0  0
    8.6860   -1.4760   -0.5840 H   0  0
    8.7810   -1.3980   -2.3420 H   0  0
    3.5040    3.0220   -1.5550 H   0  0
    0.4710   -1.4860   -1.8460 H   0  0
    0.6000    2.7870   -1.7010 H   0  0
   -1.9200   -0.1890   -1.9240 H   0  0
   -1.7770    1.3030   -2.7870 H   0  0
   -1.4240    1.8580    1.1560 H   0  0
   -4.0840    0.8240   -0.6230 H   0  0
   -3.5780    1.3930    0.8730 H   0  0
   -4.3970   -1.5210   -0.7830 H   0  0
   -3.2050   -2.6540   -0.1500 H   0  0
   -2.7850   -1.5920   -1.4900 H   0  0
   -1.0590   -0.1560    1.6230 H   0  0
   -0.7380   -0.4450   -0.0840 H   0  0
   -1.1130   -1.7950    0.9820 H   0  0
   -5.2380    0.6020    0.7560 H   0  0
   -3.7150   -1.6560    4.9140 H   0  0
   -6.6450    0.6700    2.7950 H   0  0
   -0.8770   -1.2480    4.5410 H   0  0
   -0.0780   -1.0450    3.0370 H   0  0
   -5.8810   -0.4610    4.8730 H   0  0
  1  2  2  0
  1  3  2  0
  1  4  1  0
  1  5  1  0
  4  6  2  0
  4  7  1  0
  5  8  1  0
  6  9  1  0
  7 10  2  0
  9 11  2  0
 10 12  1  0
 11 13  1  0
 12 14  2  0
 14 15  1  0
 15 16  1  0
 16 17  1  0
 16 18  1  0
 16 19  1  0
 18 20  1  0
 18 21  1  0
 18 22  1  0
 19 23  1  0
 23 24  1  0
 23 25  1  0
 23 26  1  0
 24 27  2  0
 24 28  1  0
 27 29  1  0
 27 30  1  0
 28 31  2  0
 29 32  2  0
 29 33  1  0
 30 34  2  0
 10 11  1  0
 13 14  1  0
 31 34  1  0
  5 35  1  0
  5 36  1  0
  7 37  1  0
  8 38  1  0
  8 39  1  0
  8 40  1  0
  9 41  1  0
 12 42  1  0
 13 43  1  0
 15 44  1  0
 15 45  1  0
 17 46  1  0
 19 47  1  0
 19 48  1  0
 25 49  1  0
 25 50  1  0
 25 51  1  0
 26 52  1  0
 26 53  1  0
 26 54  1  0
 28 55  1  0
 30 56  1  0
 31 57  1  0
 33 58  1  0
 33 59  1  0
 34 60  1  0
M  END
> <Name>
CHEMBL3358953

> <IC50 nM>
95

> <Molecule_ChEMBL_ID>
CHEMBL3358953

> <Smiles>
CCS(=O)(=O)c1cc2cc(C[C@](O)(CC(C)(C)c3ccccc3C(N)=O)C(F)(F)F)[nH]c2cn1

$$$$
CHEMBL197161
  SciTegic08162514323D

 59 62  0  0  1  0            999 V2000
   -5.7460    4.4080   -0.3570 O   0  0
   -5.7070    3.2010   -0.3030 C   0  0
   -6.7520    2.3420   -0.3730 O   0  0
   -4.4900    2.4300   -0.1480 C   0  0
   -6.2870    0.9610   -0.2660 C   0  0
   -4.7830    1.0800   -0.1190 C   0  0
   -3.1640    2.9080   -0.0350 C   0  0
   -3.7250    0.1480    0.0290 C   0  0
   -2.1050    1.9800    0.1090 C   0  0
   -2.3810    0.5880    0.1430 C   0  0
   -1.3850   -0.2990    0.2810 N   0  0
   -0.2070   -0.1110   -0.3870 C   0  0
   -0.0570    0.8510   -1.1020 O   0  0
    0.8930   -1.1250   -0.2090 C   0  0  1  0  0  0
    0.9200   -1.5590    1.1310 O   0  0
    0.7030   -2.3520   -1.1030 C   0  0
    2.1930   -0.3790   -0.5000 C   0  0
   -0.5960   -3.0260   -0.8420 C   0  0
    2.6540    0.4840    0.6760 C   0  0
   -1.7170   -2.7310   -1.6390 C   0  0
   -0.7050   -3.9590    0.2030 C   0  0
    3.8180    1.3320    0.3110 C   0  0
    1.5200    1.3140    1.2790 C   0  0
    3.4240   -0.3170    1.7290 C   0  0
   -2.9430   -3.3670   -1.3910 C   0  0
   -1.9340   -4.5980    0.4510 C   0  0
    4.1970    2.4040    1.1390 C   0  0
    4.5430    1.0640   -0.8650 C   0  0
   -3.0530   -4.3010   -0.3460 C   0  0
    5.2970    3.2050    0.7930 C   0  0
    5.6450    1.8650   -1.2110 C   0  0
    6.0220    2.9370   -0.3810 C   0  0
   -6.7340    0.4940    0.6000 H   0  0
   -6.5570    0.4180   -1.1620 H   0  0
   -2.9570    3.9690   -0.0590 H   0  0
   -3.9650   -0.9060    0.0530 H   0  0
   -1.0920    2.3480    0.1930 H   0  0
   -1.5040   -1.0960    0.8710 H   0  0
    1.5650   -2.2810    1.1860 H   0  0
    1.5180   -3.0630   -0.9610 H   0  0
    0.7620   -2.0720   -2.1560 H   0  0
    2.9790   -1.0740   -0.7990 H   0  0
    2.1000    0.2230   -1.4040 H   0  0
   -1.6390   -2.0140   -2.4430 H   0  0
    0.1500   -4.1920    0.8200 H   0  0
    1.8630    1.9240    2.1130 H   0  0
    0.7230    0.6680    1.6450 H   0  0
    1.0920    1.9800    0.5310 H   0  0
    3.9900    0.3500    2.3810 H   0  0
    2.7400   -0.9120    2.3360 H   0  0
    4.1290   -0.9980    1.2540 H   0  0
   -3.8030   -3.1390   -2.0040 H   0  0
   -2.0180   -5.3150    1.2540 H   0  0
    3.6450    2.6150    2.0430 H   0  0
    4.2580    0.2420   -1.5060 H   0  0
   -3.9960   -4.7910   -0.1540 H   0  0
    5.5880    4.0290    1.4300 H   0  0
    6.2010    1.6600   -2.1130 H   0  0
    6.8670    3.5530   -0.6480 H   0  0
  1  2  2  0
  2  3  1  0
  2  4  1  0
  3  5  1  0
  4  6  2  0
  4  7  1  0
  6  8  1  0
  7  9  2  0
  8 10  2  0
 10 11  1  0
 11 12  1  0
 12 13  2  0
 12 14  1  0
 14 15  1  0
 14 16  1  0
 14 17  1  0
 16 18  1  0
 17 19  1  0
 18 20  2  0
 18 21  1  0
 19 22  1  0
 19 23  1  0
 19 24  1  0
 20 25  1  0
 21 26  2  0
 22 27  2  0
 22 28  1  0
 25 29  2  0
 27 30  1  0
 28 31  2  0
 30 32  2  0
  5  6  1  0
  9 10  1  0
 26 29  1  0
 31 32  1  0
  5 33  1  0
  5 34  1  0
  7 35  1  0
  8 36  1  0
  9 37  1  0
 11 38  1  0
 15 39  1  0
 16 40  1  0
 16 41  1  0
 17 42  1  0
 17 43  1  0
 20 44  1  0
 21 45  1  0
 23 46  1  0
 23 47  1  0
 23 48  1  0
 24 49  1  0
 24 50  1  0
 24 51  1  0
 25 52  1  0
 26 53  1  0
 27 54  1  0
 28 55  1  0
 29 56  1  0
 30 57  1  0
 31 58  1  0
 32 59  1  0
M  END
> <Name>
CHEMBL197161

> <IC50 nM>
13

> <Molecule_ChEMBL_ID>
CHEMBL197161

> <Smiles>
CC(C)(CC(O)(Cc1ccccc1)C(=O)Nc1ccc2c(c1)COC2=O)c1ccccc1

$$$$
CHEMBL196237
  SciTegic08162514323D

 71 74  0  0  1  0            999 V2000
   -4.1210    6.7150    0.0250 O   0  0
   -4.0820    5.5060    0.0800 C   0  0
   -5.1290    4.6470    0.0100 O   0  0
   -2.8670    4.7340    0.2340 C   0  0
   -4.6620    3.2660    0.1170 C   0  0
   -3.1600    3.3850    0.2640 C   0  0
   -1.5390    5.2150    0.3480 C   0  0
   -2.1020    2.4530    0.4120 C   0  0
   -0.4820    4.2870    0.4920 C   0  0
   -0.7560    2.8950    0.5250 C   0  0
    0.2400    2.0080    0.6640 N   0  0
    0.2210    0.8440   -0.0510 C   0  0
   -0.6890    0.6070   -0.8110 O   0  0
    1.3550   -0.1310    0.1270 C   0  0  1  0  0  0
    1.4550   -0.4920    1.4840 O   0  0
    0.9590   -1.3730   -0.6700 C   0  0
    2.6990    0.4510   -0.3150 C   0  0
   -0.0780   -2.1700    0.0350 C   0  0
    2.8050    0.6050   -1.8320 C   0  0
    0.2890   -3.0470    1.0720 C   0  0
   -1.4320   -2.0470   -0.3300 C   0  0
    4.0290    1.4450   -1.7720 C   0  0
    3.0660   -0.7230   -2.5450 C   0  0
    1.6250    1.3730   -2.4320 C   0  0
   -0.6910   -3.7990    1.7400 C   0  0
   -2.4120   -2.7990    0.3380 C   0  0
    3.9240    2.8480   -1.7930 C   0  0
    5.2950    0.8380   -1.6930 C   0  0
   -2.0450   -3.6760    1.3730 C   0  0
    5.0820    3.6410   -1.7340 C   0  0
    6.4550    1.6310   -1.6370 C   0  0
   -3.0820   -4.4730    2.0800 C   0  0
    6.3480    3.0330   -1.6580 C   0  0
   -4.4840   -3.9180    1.8280 C   0  0
   -2.7640   -4.6150    3.5680 C   0  0
   -2.8010   -5.7500    1.2910 C   0  0
   -5.1110    2.7990    0.9820 H   0  0
   -4.9320    2.7250   -0.7790 H   0  0
   -1.3340    6.2750    0.3220 H   0  0
   -2.3400    1.4000    0.4350 H   0  0
    0.5310    4.6540    0.5760 H   0  0
    0.9960    2.1990    1.2890 H   0  0
    0.5510   -0.5680    1.8280 H   0  0
    0.5940   -1.0980   -1.6600 H   0  0
    1.8300   -2.0020   -0.8630 H   0  0
    3.5230   -0.1500    0.0680 H   0  0
    2.8890    1.4000    0.1840 H   0  0
    1.3260   -3.1470    1.3570 H   0  0
   -1.7210   -1.3750   -1.1250 H   0  0
    3.5370   -1.4510   -1.8850 H   0  0
    3.7230   -0.5760   -3.4020 H   0  0
    2.1350   -1.1560   -2.9060 H   0  0
    1.2990    2.1860   -1.7830 H   0  0
    0.7730    0.7110   -2.5880 H   0  0
    1.8950    1.8030   -3.3970 H   0  0
   -0.4020   -4.4710    2.5350 H   0  0
   -3.4490   -2.6990    0.0530 H   0  0
    2.9550    3.3200   -1.8520 H   0  0
    5.3850   -0.2380   -1.6780 H   0  0
    5.0000    4.7170   -1.7500 H   0  0
    7.4260    1.1640   -1.5760 H   0  0
    7.2380    3.6430   -1.6130 H   0  0
   -5.2340   -4.4180    2.4410 H   0  0
   -4.7680   -4.0490    0.7830 H   0  0
   -4.5250   -2.8520    2.0530 H   0  0
   -1.8690   -5.2130    3.7360 H   0  0
   -3.5900   -5.0980    4.0940 H   0  0
   -2.6040   -3.6390    4.0250 H   0  0
   -1.7810   -6.0940    1.4650 H   0  0
   -3.4960   -6.5410    1.5760 H   0  0
   -2.9160   -5.5760    0.2210 H   0  0
  1  2  2  0
  2  3  1  0
  2  4  1  0
  3  5  1  0
  4  6  2  0
  4  7  1  0
  6  8  1  0
  7  9  2  0
  8 10  2  0
 10 11  1  0
 11 12  1  0
 12 13  2  0
 12 14  1  0
 14 15  1  0
 14 16  1  0
 14 17  1  0
 16 18  1  0
 17 19  1  0
 18 20  2  0
 18 21  1  0
 19 22  1  0
 19 23  1  0
 19 24  1  0
 20 25  1  0
 21 26  2  0
 22 27  2  0
 22 28  1  0
 25 29  2  0
 27 30  1  0
 28 31  2  0
 29 32  1  0
 30 33  2  0
 32 34  1  0
 32 35  1  0
 32 36  1  0
  5  6  1  0
  9 10  1  0
 26 29  1  0
 31 33  1  0
  5 37  1  0
  5 38  1  0
  7 39  1  0
  8 40  1  0
  9 41  1  0
 11 42  1  0
 15 43  1  0
 16 44  1  0
 16 45  1  0
 17 46  1  0
 17 47  1  0
 20 48  1  0
 21 49  1  0
 23 50  1  0
 23 51  1  0
 23 52  1  0
 24 53  1  0
 24 54  1  0
 24 55  1  0
 25 56  1  0
 26 57  1  0
 27 58  1  0
 28 59  1  0
 30 60  1  0
 31 61  1  0
 33 62  1  0
 34 63  1  0
 34 64  1  0
 34 65  1  0
 35 66  1  0
 35 67  1  0
 35 68  1  0
 36 69  1  0
 36 70  1  0
 36 71  1  0
M  END
> <Name>
CHEMBL196237

> <IC50 nM>
72

> <Molecule_ChEMBL_ID>
CHEMBL196237

> <Smiles>
CC(C)(C)c1ccc(CC(O)(CC(C)(C)c2ccccc2)C(=O)Nc2ccc3c(c2)COC3=O)cc1

$$$$
CHEMBL196929
  SciTegic08162514323D

 69 73  0  0  1  0            999 V2000
   -5.7420    4.3090   -0.3240 O   0  0
   -5.7030    3.1000   -0.2720 C   0  0
   -6.7480    2.2400   -0.3400 O   0  0
   -4.4860    2.3280   -0.1150 C   0  0
   -6.2830    0.8590   -0.2340 C   0  0
   -4.7810    0.9790   -0.0880 C   0  0
   -3.1600    2.8090   -0.0040 C   0  0
   -3.7230    0.0470    0.0610 C   0  0
   -2.1020    1.8810    0.1410 C   0  0
   -2.3770    0.4880    0.1760 C   0  0
   -1.3810   -0.3980    0.3120 N   0  0
   -0.2070   -0.2170   -0.3590 C   0  0
   -0.0590    0.7420   -1.0800 O   0  0
    0.8930   -1.2310   -0.1840 C   0  0  1  0  0  0
    1.9790   -0.8970   -1.0180 O   0  0
    1.3980   -1.2970    1.2580 C   0  0
    0.3090   -2.5590   -0.6660 C   0  0
    1.8970    0.0230    1.7250 C   0  0
    0.2150   -2.6430   -2.1900 C   0  0
    3.2290    0.4000    1.4790 C   0  0
    1.0350    0.8980    2.4100 C   0  0
   -0.3550   -3.9430   -2.6310 C   0  0
   -0.5390   -1.4610   -2.8010 C   0  0
    1.5720   -2.8850   -2.8520 C   0  0
    3.7010    1.6500    1.9200 C   0  0
    1.5060    2.1480    2.8520 C   0  0
   -0.6820   -4.1470   -3.9840 C   0  0
   -0.5700   -4.9730   -1.6950 C   0  0
    2.8400    2.5250    2.6070 C   0  0
   -1.2210   -5.3750   -4.4000 C   0  0
   -1.1090   -6.2010   -2.1130 C   0  0
    3.3280    3.8200    3.0640 C   0  0
   -1.4340   -6.4020   -3.4670 C   0  0
    2.9610    4.3050    4.3340 C   0  0
    4.1660    4.5900    2.2360 C   0  0
    3.4340    5.5530    4.7730 C   0  0
    4.6370    5.8400    2.6780 C   0  0
    4.2700    6.3200    3.9470 C   0  0
   -6.7320    0.3930    0.6310 H   0  0
   -6.5530    0.3180   -1.1290 H   0  0
   -2.9530    3.8690   -0.0270 H   0  0
   -3.9610   -1.0080    0.0840 H   0  0
   -1.0880    2.2480    0.2250 H   0  0
   -1.4980   -1.1930    0.9080 H   0  0
    1.6290   -0.3460   -1.7360 H   0  0
    2.1910   -2.0370    1.3540 H   0  0
    0.6130   -1.6450    1.9280 H   0  0
    0.8810   -3.3970   -0.2680 H   0  0
   -0.6640   -2.7400   -0.2090 H   0  0
    3.8950   -0.2680    0.9510 H   0  0
    0.0120    0.6150    2.6020 H   0  0
   -0.8950   -1.6840   -3.8070 H   0  0
    0.1050   -0.5840   -2.8610 H   0  0
   -1.4020   -1.1990   -2.1910 H   0  0
    1.4490   -3.3990   -3.8050 H   0  0
    2.0920   -1.9410   -3.0200 H   0  0
    2.2050   -3.5060   -2.2190 H   0  0
    4.7290    1.9240    1.7230 H   0  0
    0.8320    2.8090    3.3790 H   0  0
   -0.5200   -3.3610   -4.7070 H   0  0
   -0.3220   -4.8220   -0.6540 H   0  0
   -1.4710   -5.5310   -5.4400 H   0  0
   -1.2730   -6.9900   -1.3950 H   0  0
   -1.8480   -7.3480   -3.7870 H   0  0
    2.3180    3.7270    4.9820 H   0  0
    4.4590    4.2340    1.2580 H   0  0
    3.1500    5.9240    5.7480 H   0  0
    5.2790    6.4300    2.0430 H   0  0
    4.6330    7.2810    4.2850 H   0  0
  1  2  2  0
  2  3  1  0
  2  4  1  0
  3  5  1  0
  4  6  2  0
  4  7  1  0
  6  8  1  0
  7  9  2  0
  8 10  2  0
 10 11  1  0
 11 12  1  0
 12 13  2  0
 12 14  1  0
 14 15  1  0
 14 16  1  0
 14 17  1  0
 16 18  1  0
 17 19  1  0
 18 20  2  0
 18 21  1  0
 19 22  1  0
 19 23  1  0
 19 24  1  0
 20 25  1  0
 21 26  2  0
 22 27  2  0
 22 28  1  0
 25 29  2  0
 27 30  1  0
 28 31  2  0
 29 32  1  0
 30 33  2  0
 32 34  2  0
 32 35  1  0
 34 36  1  0
 35 37  2  0
 36 38  2  0
  5  6  1  0
  9 10  1  0
 26 29  1  0
 31 33  1  0
 37 38  1  0
  5 39  1  0
  5 40  1  0
  7 41  1  0
  8 42  1  0
  9 43  1  0
 11 44  1  0
 15 45  1  0
 16 46  1  0
 16 47  1  0
 17 48  1  0
 17 49  1  0
 20 50  1  0
 21 51  1  0
 23 52  1  0
 23 53  1  0
 23 54  1  0
 24 55  1  0
 24 56  1  0
 24 57  1  0
 25 58  1  0
 26 59  1  0
 27 60  1  0
 28 61  1  0
 30 62  1  0
 31 63  1  0
 33 64  1  0
 34 65  1  0
 35 66  1  0
 36 67  1  0
 37 68  1  0
 38 69  1  0
M  END
> <Name>
CHEMBL196929

> <IC50 nM>
740

> <Molecule_ChEMBL_ID>
CHEMBL196929

> <Smiles>
CC(C)(CC(O)(Cc1ccc(-c2ccccc2)cc1)C(=O)Nc1ccc2c(c1)COC2=O)c1ccccc1

$$$$
CHEMBL444286
  SciTegic08162514323D

 57 61  0  0  1  0            999 V2000
   -8.4630   -3.3560    1.2950 F   0  0
   -7.4610   -2.5430    0.9690 C   0  0
   -6.2540   -2.5920    1.6890 C   0  0
   -7.6070   -1.6350   -0.0940 C   0  0
   -5.1930   -1.7350    1.3480 C   0  0
   -6.5490   -0.7760   -0.4380 C   0  0
   -5.3400   -0.8220    0.2830 C   0  0
   -4.3160    0.0060   -0.0490 N   0  0
   -4.4510    1.3300   -0.3360 N   0  0
   -3.0080   -0.3480   -0.1430 C   0  0
   -3.2730    1.9370   -0.6460 C   0  0
   -2.4140    0.8500   -0.5210 C   0  0
   -2.2790   -1.6170    0.0590 C   0  0
   -0.9040    0.8510   -0.7750 C   0  0
   -0.9300   -1.5390    0.0720 C   0  0
   -0.1870   -0.2150    0.1050 C   0  0  1  0  0  0
    0.0080   -2.7030    0.0120 C   0  0
    1.2480   -0.6510   -0.3420 C   0  0
   -0.2130    0.2790    1.5610 C   0  0
    1.1560   -2.1210   -0.8110 C   0  0
    1.7890    0.1620   -1.3710 O   0  0
    2.2130   -0.5470    0.7010 O   0  0
    2.8030    0.9920   -0.8540 C   0  0  1  0  0  0
    3.3790    0.0920    0.2300 C   0  0  1  0  0  0
    3.7660    1.3980   -1.9390 C   0  0
    4.0860    0.8030    1.3550 C   0  0
    4.0820    2.6990   -2.0610 C   0  0
    5.4040    0.5980    1.5160 C   0  0
    5.0430    3.1030   -3.1470 C   0  0
    6.1120    1.3070    2.6390 C   0  0
   -6.1370   -3.2890    2.5060 H   0  0
   -8.5330   -1.5940   -0.6480 H   0  0
   -4.2730   -1.7870    1.9120 H   0  0
   -6.6820   -0.0840   -1.2580 H   0  0
   -3.1050    2.9730   -0.9100 H   0  0
   -2.7990   -2.5590    0.1760 H   0  0
   -0.7580    0.6290   -1.8340 H   0  0
   -0.4880    1.8440   -0.5980 H   0  0
   -0.4390   -3.5630   -0.4650 H   0  0
    0.3260   -2.9750    1.0080 H   0  0
    0.1840   -0.4650    2.2480 H   0  0
   -1.2300    0.5120    1.8710 H   0  0
    0.3830    1.1850    1.6700 H   0  0
    2.0740   -2.6780   -0.6880 H   0  0
    0.8950   -2.1700   -1.8590 H   0  0
    2.3280    1.8670   -0.4280 H   0  0
    4.0220   -0.6700   -0.1910 H   0  0
    4.2400    0.7380   -2.6480 H   0  0
    3.4770    1.4430    1.9750 H   0  0
    3.6990    3.4940   -1.4380 H   0  0
    5.8580   -0.0780    0.8050 H   0  0
    5.0160    4.1700   -3.3770 H   0  0
    4.8190    2.5590   -4.0630 H   0  0
    6.0630    2.8530   -2.8500 H   0  0
    7.0410    0.7930    2.8750 H   0  0
    6.2850    2.3480    2.3670 H   0  0
    5.4880    1.2970    3.5330 H   0  0
  1  2  1  0
  2  3  2  0
  2  4  1  0
  3  5  1  0
  4  6  2  0
  5  7  2  0
  7  8  1  0
  8  9  1  0
  8 10  1  0
  9 11  2  0
 10 12  2  0
 10 13  1  0
 12 14  1  0
 13 15  2  0
 14 16  1  0
 15 17  1  0
 16 18  1  0
 16 19  1  0
 17 20  1  0
 18 21  1  0
 18 22  1  0
 21 23  1  0
 22 24  1  0
 23 25  1  0
 24 26  1  0
 25 27  2  0
 26 28  2  0
 27 29  1  0
 28 30  1  0
  6  7  1  0
 11 12  1  0
 15 16  1  0
 18 20  1  0
 23 24  1  0
  3 31  1  0
  4 32  1  0
  5 33  1  0
  6 34  1  0
 11 35  1  0
 13 36  1  0
 14 37  1  0
 14 38  1  0
 17 39  1  0
 17 40  1  0
 19 41  1  0
 19 42  1  0
 19 43  1  0
 20 44  1  0
 20 45  1  0
 23 46  1  0
 24 47  1  0
 25 48  1  0
 26 49  1  0
 27 50  1  0
 28 51  1  0
 29 52  1  0
 29 53  1  0
 29 54  1  0
 30 55  1  0
 30 56  1  0
 30 57  1  0
M  END
> <Name>
CHEMBL444286

> <IC50 nM>
2.7

> <Molecule_ChEMBL_ID>
CHEMBL444286

> <Smiles>
C/C=C/[C@H]1OC2(CCC3=Cc4c(cnn4-c4ccc(F)cc4)C[C@@]32C)O[C@@H]1/C=C/C

$$$$
CHEMBL3086027
  SciTegic08162514323D

 43 45  0  0  0  0            999 V2000
   -2.7750   -2.4220    2.1780 S   0  0
   -4.0760   -2.1740    1.5840 O   0  0
   -2.8540   -3.0390    3.4900 O   0  0
   -1.9880   -3.5820    1.1470 N   0  0
   -1.9550   -0.9100    2.3380 C   0  0
   -1.9510   -3.3110   -0.2790 C   0  0
   -2.6860    0.2750    2.5310 C   0  0
   -0.5510   -0.8710    2.2740 C   0  0
   -1.0680   -2.1560   -0.5960 C   0  0
   -4.0160    0.2420    2.5940 F   0  0
   -2.0100    1.5020    2.6580 C   0  0
    0.1250    0.3550    2.4020 C   0  0
   -1.6310   -0.9200   -0.9570 C   0  0
    0.3280   -2.3030   -0.5290 C   0  0
   -0.6060    1.5410    2.5960 C   0  0
    1.4530    0.3950    2.3440 F   0  0
   -0.7970    0.1720   -1.2560 C   0  0
    1.1640   -1.2110   -0.8280 C   0  0
    0.6020    0.0270   -1.1910 C   0  0
    1.4100    1.0840   -1.4780 N   0  0
    2.5780    1.0680   -2.1850 C   0  0
    1.2150    2.3730   -1.1190 C   0  0
    3.1190    2.3130   -2.2770 N   0  0
    3.2110   -0.1660   -2.7990 C   0  0
    2.2730    3.1310   -1.6150 C   0  0
    2.5080    4.6190   -1.4760 C   0  0
   -1.0230   -3.7320    1.4730 H   0  0
   -1.5960   -4.1950   -0.8090 H   0  0
   -2.9610   -3.1040   -0.6370 H   0  0
    0.0060   -1.7850    2.1250 H   0  0
   -2.5660    2.4160    2.8070 H   0  0
   -2.7030   -0.8050   -1.0100 H   0  0
    0.7640   -3.2500   -0.2520 H   0  0
   -0.0900    2.4860    2.6930 H   0  0
   -1.2480    1.1150   -1.5330 H   0  0
    2.2340   -1.3420   -0.7710 H   0  0
    0.3710    2.7290   -0.5450 H   0  0
    3.8360    0.0370   -3.6680 H   0  0
    2.4300   -0.8610   -3.1050 H   0  0
    3.8280   -0.6660   -2.0530 H   0  0
    3.4280    4.8930   -1.9920 H   0  0
    1.6390    5.1600   -1.8500 H   0  0
    2.6310    4.8710   -0.4240 H   0  0
  1  2  2  0
  1  3  2  0
  1  4  1  0
  1  5  1  0
  4  6  1  0
  5  7  2  0
  5  8  1  0
  6  9  1  0
  7 10  1  0
  7 11  1  0
  8 12  2  0
  9 13  2  0
  9 14  1  0
 11 15  2  0
 12 16  1  0
 13 17  1  0
 14 18  2  0
 17 19  2  0
 19 20  1  0
 20 21  1  0
 20 22  1  0
 21 23  2  0
 21 24  1  0
 22 25  2  0
 25 26  1  0
 12 15  1  0
 18 19  1  0
 23 25  1  0
  4 27  1  0
  6 28  1  0
  6 29  1  0
  8 30  1  0
 11 31  1  0
 13 32  1  0
 14 33  1  0
 15 34  1  0
 17 35  1  0
 18 36  1  0
 22 37  1  0
 24 38  1  0
 24 39  1  0
 24 40  1  0
 26 41  1  0
 26 42  1  0
 26 43  1  0
M  END
> <Name>
CHEMBL3086027

> <IC50 nM>
2195

> <Molecule_ChEMBL_ID>
CHEMBL3086027

> <Smiles>
Cc1cn(-c2ccc(CNS(=O)(=O)c3cc(F)ccc3F)cc2)c(C)n1

$$$$
CHEMBL203339
  SciTegic08162514323D

 50 52  0  0  0  0            999 V2000
   -1.2460   -2.2730   -1.1760 S   0  0
   -2.1130   -1.7640    0.3340 C   0  0
   -1.0310   -4.0330   -0.7890 C   0  0
   -2.4220   -0.2870    0.2640 C   0  0
   -0.3120   -4.7110   -1.9240 C   0  0
   -1.3360    0.7360    0.3150 C   0  0
   -3.7050    0.1070    0.1540 C   0  0
    0.2310   -5.9220   -1.7070 C   0  0
   -1.6680    2.1210    0.2440 C   0  0
    0.0220    0.3360    0.4340 C   0  0
   -4.1070    1.5700    0.0780 C   0  0
   -2.9590    2.5220    0.1310 N   0  0
   -0.6270    3.0840    0.2950 C   0  0
    1.0530    1.3050    0.4830 C   0  0
   -4.8590    1.7870   -1.2380 C   0  0
   -5.0410    1.8690    1.2540 C   0  0
    0.7210    2.6800    0.4140 C   0  0
    2.4430    0.8910    0.6060 C   0  0
    3.4410    1.5410   -0.1460 C   0  0
    2.7930   -0.1600    1.4730 C   0  0
    4.7850    1.1430   -0.0290 C   0  0
    4.1350   -0.5590    1.5880 C   0  0
    5.7210    1.7520   -0.7320 O   0  0
    5.1290    0.0920    0.8380 C   0  0
    7.0700    1.3630   -0.5230 C   0  0
   -3.0410   -2.3300    0.4320 H   0  0
   -1.4860   -1.9710    1.2010 H   0  0
   -2.0080   -4.4940   -0.6410 H   0  0
   -0.4530   -4.1350    0.1290 H   0  0
   -0.1820   -4.3180   -2.9220 H   0  0
   -4.4820   -0.6450    0.1190 H   0  0
    0.7730   -6.5270   -2.4160 H   0  0
    0.0980   -6.3150   -0.7090 H   0  0
    0.2720   -0.7130    0.4860 H   0  0
   -3.1760    3.5000    0.0780 H   0  0
   -0.8500    4.1430    0.2420 H   0  0
   -4.2300    1.5860   -2.1030 H   0  0
   -5.2110    2.8160   -1.3140 H   0  0
   -5.7310    1.1330   -1.2970 H   0  0
   -4.5450    1.7250    2.2130 H   0  0
   -5.9140    1.2150    1.2290 H   0  0
   -5.3950    2.8990    1.2110 H   0  0
    1.4940    3.4360    0.4490 H   0  0
    3.1880    2.3500   -0.8160 H   0  0
    2.0390   -0.6720    2.0570 H   0  0
    4.4020   -1.3650    2.2540 H   0  0
    6.1600   -0.2170    0.9320 H   0  0
    7.6990    1.9300   -1.2110 H   0  0
    7.2970    1.4710    0.5370 H   0  0
    7.1640    0.3090   -0.7790 H   0  0
  1  2  1  0
  1  3  1  0
  2  4  1  0
  3  5  1  0
  4  6  1  0
  4  7  2  0
  5  8  2  0
  6  9  2  0
  6 10  1  0
  7 11  1  0
  9 12  1  0
  9 13  1  0
 10 14  2  0
 11 15  1  0
 11 16  1  0
 13 17  2  0
 14 18  1  0
 18 19  2  0
 18 20  1  0
 19 21  1  0
 20 22  2  0
 21 23  1  0
 21 24  2  0
 23 25  1  0
 11 12  1  0
 14 17  1  0
 22 24  1  0
  2 26  1  0
  2 27  1  0
  3 28  1  0
  3 29  1  0
  5 30  1  0
  7 31  1  0
  8 32  1  0
  8 33  1  0
 10 34  1  0
 12 35  1  0
 13 36  1  0
 15 37  1  0
 15 38  1  0
 15 39  1  0
 16 40  1  0
 16 41  1  0
 16 42  1  0
 17 43  1  0
 19 44  1  0
 20 45  1  0
 22 46  1  0
 24 47  1  0
 25 48  1  0
 25 49  1  0
 25 50  1  0
M  END
> <Name>
CHEMBL203339

> <IC50 nM>
1000

> <Molecule_ChEMBL_ID>
CHEMBL203339

> <Smiles>
C=CCSCC1=CC(C)(C)Nc2ccc(-c3cccc(OC)c3)cc21

$$$$
CHEMBL205978
  SciTegic08162514323D

 56 59  0  0  0  0            999 V2000
   -0.7290   -1.7870   -1.3340 S   0  0
   -0.5570   -3.5570   -0.9670 C   0  0
   -1.5780   -1.2730    0.1860 C   0  0
    0.2540   -4.2850   -2.0350 C   0  0
   -1.9020   -4.2810   -0.9530 C   0  0
   -1.8850    0.2030    0.1150 C   0  0
   -0.1520   -5.7310   -1.7910 C   0  0
   -1.6680   -5.6150   -1.6640 C   0  0
   -0.7990    1.2270    0.1660 C   0  0
   -3.1680    0.5980    0.0060 C   0  0
   -1.1310    2.6090    0.0960 C   0  0
    0.5590    0.8260    0.2850 C   0  0
   -3.5700    2.0610   -0.0720 C   0  0
   -2.4220    3.0120   -0.0170 N   0  0
   -0.0900    3.5740    0.1470 C   0  0
    1.5900    1.7950    0.3340 C   0  0
   -4.3220    2.2770   -1.3870 C   0  0
   -4.5040    2.3590    1.1040 C   0  0
    1.2580    3.1700    0.2640 C   0  0
    2.9800    1.3810    0.4570 C   0  0
    3.8300    1.9840    1.4100 C   0  0
    3.4790    0.3690   -0.3870 C   0  0
    3.3870    2.9340    2.2110 O   0  0
    5.1680    1.5680    1.5100 C   0  0
    4.8180   -0.0410   -0.2810 C   0  0
    4.2560    3.4040    3.2310 C   0  0
    5.6640    0.5590    0.6680 C   0  0
   -0.0720   -3.6720   -0.0080 H   0  0
   -2.5020   -1.8380    0.2950 H   0  0
   -0.9400   -1.4790    1.0450 H   0  0
   -0.0310   -3.9650   -3.0270 H   0  0
    1.3160   -4.1290   -1.9200 H   0  0
   -2.6620   -3.7130   -1.4710 H   0  0
   -2.2440   -4.4300    0.0610 H   0  0
    0.2830   -6.1000   -0.8730 H   0  0
    0.1440   -6.3870   -2.5960 H   0  0
   -2.0940   -6.4490   -1.1230 H   0  0
   -2.1210   -5.5980   -2.6460 H   0  0
   -3.9450   -0.1540   -0.0310 H   0  0
    0.8090   -0.2230    0.3380 H   0  0
   -2.6390    3.9900   -0.0700 H   0  0
   -0.3130    4.6310    0.0940 H   0  0
   -3.6930    2.0740   -2.2540 H   0  0
   -4.6740    3.3070   -1.4630 H   0  0
   -5.1930    1.6230   -1.4450 H   0  0
   -4.0080    2.2150    2.0650 H   0  0
   -5.3770    1.7050    1.0800 H   0  0
   -4.8590    3.3890    1.0630 H   0  0
    2.0310    3.9260    0.3010 H   0  0
    2.8420   -0.1030   -1.1230 H   0  0
    5.8220    2.0250    2.2360 H   0  0
    5.1970   -0.8180   -0.9300 H   0  0
    3.7380    4.1860    3.7870 H   0  0
    4.6000    2.5470    3.8090 H   0  0
    5.1270    3.8560    2.7560 H   0  0
    6.6930    0.2420    0.7480 H   0  0
  1  2  1  0
  1  3  1  0
  2  4  1  0
  2  5  1  0
  3  6  1  0
  4  7  1  0
  5  8  1  0
  6  9  1  0
  6 10  2  0
  9 11  2  0
  9 12  1  0
 10 13  1  0
 11 14  1  0
 11 15  1  0
 12 16  2  0
 13 17  1  0
 13 18  1  0
 15 19  2  0
 16 20  1  0
 20 21  2  0
 20 22  1  0
 21 23  1  0
 21 24  1  0
 22 25  2  0
 23 26  1  0
 24 27  2  0
  7  8  1  0
 13 14  1  0
 16 19  1  0
 25 27  1  0
  2 28  1  0
  3 29  1  0
  3 30  1  0
  4 31  1  0
  4 32  1  0
  5 33  1  0
  5 34  1  0
  7 35  1  0
  7 36  1  0
  8 37  1  0
  8 38  1  0
 10 39  1  0
 12 40  1  0
 14 41  1  0
 15 42  1  0
 17 43  1  0
 17 44  1  0
 17 45  1  0
 18 46  1  0
 18 47  1  0
 18 48  1  0
 19 49  1  0
 22 50  1  0
 24 51  1  0
 25 52  1  0
 26 53  1  0
 26 54  1  0
 26 55  1  0
 27 56  1  0
M  END
> <Name>
CHEMBL205978

> <IC50 nM>
548

> <Molecule_ChEMBL_ID>
CHEMBL205978

> <Smiles>
COc1ccccc1-c1ccc2c(c1)C(CSC1CCCC1)=CC(C)(C)N2

$$$$
CHEMBL1094526
  SciTegic08162514323D

 42 45  0  0  1  0            999 V2000
   -1.4860   -3.6540    4.3850 Cl  0  0
   -1.8030   -3.6520    2.6990 C   0  0
   -2.0590   -2.4390    2.0330 C   0  0
   -1.8090   -4.8610    1.9810 C   0  0
   -2.3200   -2.4380    0.6500 C   0  0
   -2.0700   -4.8590    0.6020 C   0  0
   -2.3260   -3.6480   -0.0640 C   0  0
   -2.5900   -1.1560   -0.0530 C   0  0  1  0  0  0
   -3.5390   -0.4100    0.6760 O   0  0
   -1.3420   -0.3870   -0.1660 C   0  0
   -3.2320   -1.3910   -1.4220 C   0  0
   -0.0940   -1.0630   -0.1950 C   0  0
   -1.3890    1.0330   -0.2420 C   0  0
   -2.2950   -1.8910   -2.2870 F   0  0
   -3.7150   -0.2030   -1.9080 F   0  0
   -4.2620   -2.2850   -1.2950 F   0  0
    1.1040   -0.3090   -0.3030 C   0  0
   -0.1910    1.7810   -0.3500 C   0  0
    1.0310    1.0700   -0.3770 C   0  0
    2.3570   -0.8960   -0.3380 C   0  0
    2.3380    1.4240   -0.4670 N   0  0
    3.0880    0.2700   -0.4430 N   0  0
    2.8360    2.6860   -0.5640 C   0  0
    2.3180    3.7130    0.2460 C   0  0
    3.8710    2.9670   -1.4760 C   0  0
    2.8340    5.0180    0.1450 C   0  0
    4.3850    4.2720   -1.5760 C   0  0
    3.8670    5.2970   -0.7660 C   0  0
    4.3560    6.5310   -0.8610 F   0  0
   -2.0570   -1.5060    2.5760 H   0  0
   -1.6110   -5.8010    2.4790 H   0  0
   -2.0760   -5.7870    0.0510 H   0  0
   -2.5270   -3.6520   -1.1270 H   0  0
   -3.1040   -0.1090    1.4880 H   0  0
   -0.0610   -2.1430   -0.1370 H   0  0
   -2.3400    1.5470   -0.2210 H   0  0
   -0.2150    2.8590   -0.4100 H   0  0
    2.7070   -1.9200   -0.3010 H   0  0
    1.5230    3.5180    0.9530 H   0  0
    4.2830    2.1910   -2.1090 H   0  0
    2.4340    5.8030    0.7700 H   0  0
    5.1800    4.4820   -2.2770 H   0  0
  1  2  1  0
  2  3  2  0
  2  4  1  0
  3  5  1  0
  4  6  2  0
  5  7  2  0
  5  8  1  0
  8  9  1  0
  8 10  1  0
  8 11  1  0
 10 12  2  0
 10 13  1  0
 11 14  1  0
 11 15  1  0
 11 16  1  0
 12 17  1  0
 13 18  2  0
 17 19  2  0
 17 20  1  0
 19 21  1  0
 20 22  2  0
 21 23  1  0
 23 24  2  0
 23 25  1  0
 24 26  1  0
 25 27  2  0
 26 28  2  0
 28 29  1  0
  6  7  1  0
 18 19  1  0
 21 22  1  0
 27 28  1  0
  3 30  1  0
  4 31  1  0
  6 32  1  0
  7 33  1  0
  9 34  1  0
 12 35  1  0
 13 36  1  0
 18 37  1  0
 20 38  1  0
 24 39  1  0
 25 40  1  0
 26 41  1  0
 27 42  1  0
M  END
> <Name>
CHEMBL1094526

> <IC50 nM>
72

> <Molecule_ChEMBL_ID>
CHEMBL1094526

> <Smiles>
OC(c1cccc(Cl)c1)(c1ccc2c(cnn2-c2ccc(F)cc2)c1)C(F)(F)F

$$$$
CHEMBL1094209
  SciTegic08162514323D

 41 44  0  0  1  0            999 V2000
   -4.3520   -0.3870   -3.8870 Cl  0  0
   -4.2770   -0.5530   -2.1860 C   0  0
   -5.2560    0.0160   -1.4220 N   0  0
   -3.2170   -1.2710   -1.5960 C   0  0
   -5.2130   -0.1050   -0.0630 C   0  0
   -3.1660   -1.4020   -0.1970 C   0  0
   -4.1780   -0.8100    0.5800 C   0  0
   -2.0610   -2.1540    0.4510 C   0  0  1  0  0  0
   -1.9020   -3.4000   -0.1860 O   0  0
   -0.8110   -1.3830    0.3400 C   0  0
   -2.3850   -2.4900    1.9080 C   0  0
    0.4380   -2.0600    0.3100 C   0  0
   -0.8590    0.0350    0.2620 C   0  0
   -1.4610   -3.3810    2.3890 F   0  0
   -3.6370   -3.0450    1.9800 F   0  0
   -2.3500   -1.3440    2.6600 F   0  0
    1.6350   -1.3050    0.2030 C   0  0
    0.3400    0.7830    0.1560 C   0  0
    1.5610    0.0720    0.1290 C   0  0
    2.8870   -1.8940    0.1680 C   0  0
    2.8690    0.4280    0.0390 N   0  0
    3.6190   -0.7280    0.0620 N   0  0
    3.3670    1.6880   -0.0590 C   0  0
    4.3990    1.9710   -0.9750 C   0  0
    2.8540    2.7150    0.7560 C   0  0
    4.9120    3.2760   -1.0740 C   0  0
    3.3690    4.0200    0.6540 C   0  0
    4.3990    4.2990   -0.2600 C   0  0
    4.8870    5.5350   -0.3560 F   0  0
   -2.4450   -1.7210   -2.2070 H   0  0
   -5.9920    0.3500    0.5310 H   0  0
   -4.1640   -0.8910    1.6560 H   0  0
   -1.5660   -3.2250   -1.0800 H   0  0
    0.4690   -3.1410    0.3690 H   0  0
   -1.8090    0.5510    0.2850 H   0  0
    0.3160    1.8610    0.0960 H   0  0
    3.2380   -2.9160    0.2050 H   0  0
    4.8070    1.1970   -1.6090 H   0  0
    2.0610    2.5200    1.4650 H   0  0
    5.7050    3.4860   -1.7790 H   0  0
    2.9710    4.8030    1.2810 H   0  0
  1  2  1  0
  2  3  2  0
  2  4  1  0
  3  5  1  0
  4  6  2  0
  5  7  2  0
  6  8  1  0
  8  9  1  0
  8 10  1  0
  8 11  1  0
 10 12  2  0
 10 13  1  0
 11 14  1  0
 11 15  1  0
 11 16  1  0
 12 17  1  0
 13 18  2  0
 17 19  2  0
 17 20  1  0
 19 21  1  0
 20 22  2  0
 21 23  1  0
 23 24  2  0
 23 25  1  0
 24 26  1  0
 25 27  2  0
 26 28  2  0
 28 29  1  0
  6  7  1  0
 18 19  1  0
 21 22  1  0
 27 28  1  0
  4 30  1  0
  5 31  1  0
  7 32  1  0
  9 33  1  0
 12 34  1  0
 13 35  1  0
 18 36  1  0
 20 37  1  0
 24 38  1  0
 25 39  1  0
 26 40  1  0
 27 41  1  0
M  END
> <Name>
CHEMBL1094209

> <IC50 nM>
14

> <Molecule_ChEMBL_ID>
CHEMBL1094209

> <Smiles>
OC(c1ccnc(Cl)c1)(c1ccc2c(cnn2-c2ccc(F)cc2)c1)C(F)(F)F

$$$$
CHEMBL1762211
  SciTegic08162514323D

 46 49  0  0  1  0            999 V2000
   -6.9360    2.3050   -2.5720 Cl  0  0
   -5.5430    1.5080   -1.9670 C   0  0
   -4.7090    1.9060   -0.9730 C   0  0
   -5.0350    0.2790   -2.4240 C   0  0
   -3.6920    1.0080   -0.7600 C   0  0
   -4.8110    3.0960   -0.2030 C   0  0
   -3.8790   -0.0290   -1.6660 N   0  0
   -2.7070    1.2360    0.2360 C   0  0
   -3.8360    3.3440    0.7990 C   0  0
   -1.6290    0.2830    0.4610 C   0  0
   -2.7830    2.4180    1.0200 C   0  0
   -0.2790    0.6700    0.2440 C   0  0
   -1.9380   -1.0270    0.9000 C   0  0
   -0.0270    1.9180   -0.1600 F   0  0
    0.7790   -0.2680    0.4670 C   0  0
   -3.1970   -1.4020    1.1250 F   0  0
   -0.8980   -1.9610    1.1020 C   0  0
    0.4550   -1.6040    0.8690 C   0  0
    2.2340    0.1110    0.3010 C   0  0
    1.4160   -2.5530    1.0270 N   0  0
    2.6210    1.2380   -0.1970 N   0  0
    3.2770   -0.9020    0.7500 C   0  0  3  0  0  0
    2.8030   -2.3610    0.5190 C   0  0
    4.0040    1.5920   -0.3480 O   0  0
    3.5590   -0.6820    2.1230 O   0  0
    3.7400   -3.3730    1.1950 C   0  0
    2.7990   -2.6640   -0.9840 C   0  0
    3.9920    2.8910   -0.9240 C   0  0
   -5.4260   -0.3540   -3.2090 H   0  0
   -5.6100    3.8070   -0.3610 H   0  0
   -3.3130   -0.8380   -1.7680 H   0  0
   -3.8970    4.2420    1.3950 H   0  0
   -2.0490    2.6250    1.7850 H   0  0
   -1.1560   -2.9570    1.4340 H   0  0
    1.1910   -3.4240    1.4710 H   0  0
    4.2210   -0.7600    0.2210 H   0  0
    3.9980    0.1820    2.1890 H   0  0
    3.7210   -3.2830    2.2810 H   0  0
    4.7700   -3.2250    0.8650 H   0  0
    3.4550   -4.3950    0.9390 H   0  0
    2.1290   -2.0000   -1.5310 H   0  0
    2.4790   -3.6900   -1.1700 H   0  0
    3.7990   -2.5470   -1.4020 H   0  0
    5.0200    3.2440   -0.9900 H   0  0
    3.4360    2.8440   -1.8590 H   0  0
    3.4530    3.5570   -0.2480 H   0  0
  1  2  1  0
  2  3  1  0
  2  4  2  0
  3  5  1  0
  3  6  2  0
  4  7  1  0
  5  8  2  0
  6  9  1  0
  8 10  1  0
  8 11  1  0
 10 12  2  0
 10 13  1  0
 12 14  1  0
 12 15  1  0
 13 16  1  0
 13 17  2  0
 15 18  2  0
 15 19  1  0
 18 20  1  0
 19 21  2  0
 19 22  1  0
 20 23  1  0
 21 24  1  0
 22 25  1  0
 23 26  1  0
 23 27  1  0
 24 28  1  0
  5  7  1  0
  9 11  2  0
 17 18  1  0
 22 23  1  0
  4 29  1  0
  6 30  1  0
  7 31  1  0
  9 32  1  0
 11 33  1  0
 17 34  1  0
 20 35  1  0
 22 36  1  0
 25 37  1  0
 26 38  1  0
 26 39  1  0
 26 40  1  0
 27 41  1  0
 27 42  1  0
 27 43  1  0
 28 44  1  0
 28 45  1  0
 28 46  1  0
M  END
> <Name>
CHEMBL1762211

> <IC50 nM>
14

> <Molecule_ChEMBL_ID>
CHEMBL1762211

> <Smiles>
CO/N=C1/c2c(cc(F)c(-c3cccc4c(Cl)c[nH]c34)c2F)NC(C)(C)C1O

$$$$
CHEMBL228661
  SciTegic08162514323D

 59 61  0  0  1  0            999 V2000
   -1.0840   -2.5130   -1.8520 O   0  0
   -0.6990   -1.7230   -0.7500 C   0  0  2  0  0  0
   -1.7330   -1.7770   -2.8630 C   0  0
    0.4980   -0.8840   -1.1260 C   0  0
   -0.4110   -2.6540    0.4290 C   0  0
   -2.1370   -2.7040   -3.9780 C   0  0
    0.7670    0.4280   -0.4670 C   0  0
    1.3370   -1.3360   -2.0790 C   0  0
   -1.6690   -3.3450    0.9560 C   0  0
   -3.1060   -2.3100   -4.8210 C   0  0
    1.9080    1.1890   -0.8500 C   0  0
   -0.1090    0.9180    0.5370 C   0  0
    2.5650   -0.5600   -2.5220 C   0  0
   -1.3890   -4.2410    2.1620 C   0  0
    2.7580    0.7370   -1.8080 N   0  0
    2.1530    2.4360   -0.2170 C   0  0
    0.1410    2.1630    1.1640 C   0  0
    3.7960   -1.4370   -2.2790 C   0  0
    2.4320   -0.2730   -4.0200 C   0  0
    1.2760    2.9170    0.7810 C   0  0
   -0.7600    2.6620    2.1930 C   0  0
   -0.2520    3.1620    3.4120 C   0  0
   -2.1500    2.6430    1.9650 C   0  0
    1.0450    3.1900    3.6490 O   0  0
   -1.1420    3.6390    4.3910 C   0  0
   -3.0310    3.1220    2.9490 C   0  0
    1.4900    3.8000    4.8520 C   0  0
   -2.5270    3.6190    4.1620 C   0  0
   -1.5200   -1.0460   -0.5150 H   0  0
   -1.0360   -1.0280   -3.2390 H   0  0
   -2.6180   -1.3120   -2.4290 H   0  0
    0.3490   -3.3880    0.1640 H   0  0
    0.0960   -2.1160    1.2300 H   0  0
   -1.7200   -3.6800   -4.1780 H   0  0
    1.1320   -2.2880   -2.5490 H   0  0
   -2.4410   -2.6120    1.1910 H   0  0
   -2.1600   -3.9090    0.1620 H   0  0
   -3.6490   -1.3760   -4.7950 H   0  0
   -3.3550   -3.0140   -5.6010 H   0  0
   -0.9750    0.3390    0.8280 H   0  0
   -2.3070   -4.7110    2.5150 H   0  0
   -0.6680   -5.0180    1.9060 H   0  0
   -0.9740   -3.6600    2.9860 H   0  0
    3.5590    1.2830   -2.0630 H   0  0
    3.0120    3.0350   -0.4880 H   0  0
    3.9290   -1.6660   -1.2220 H   0  0
    4.7000   -0.9380   -2.6280 H   0  0
    3.7080   -2.3810   -2.8160 H   0  0
    1.5650    0.3500   -4.2390 H   0  0
    2.3250   -1.2020   -4.5820 H   0  0
    3.3160    0.2420   -4.3940 H   0  0
    1.4860    3.8700    1.2470 H   0  0
   -2.5540    2.2630    1.0370 H   0  0
   -0.7600    4.0230    5.3260 H   0  0
   -4.0960    3.1060    2.7720 H   0  0
    1.1570    3.3430    5.7840 H   0  0
    1.1570    4.8370    4.8520 H   0  0
    2.5800    3.8000    4.8520 H   0  0
   -3.2050    3.9870    4.9180 H   0  0
  2  1  1  0
  1  3  1  0
  2  4  1  0
  2  5  1  0
  3  6  1  0
  4  7  1  0
  4  8  2  0
  5  9  1  0
  6 10  2  0
  7 11  2  0
  7 12  1  0
  8 13  1  0
  9 14  1  0
 11 15  1  0
 11 16  1  0
 12 17  2  0
 13 18  1  0
 13 19  1  0
 16 20  2  0
 17 21  1  0
 21 22  2  0
 21 23  1  0
 22 24  1  0
 22 25  1  0
 23 26  2  0
 24 27  1  0
 25 28  2  0
 13 15  1  0
 17 20  1  0
 26 28  1  0
  2 29  1  0
  3 30  1  0
  3 31  1  0
  5 32  1  0
  5 33  1  0
  6 34  1  0
  8 35  1  0
  9 36  1  0
  9 37  1  0
 10 38  1  0
 10 39  1  0
 12 40  1  0
 14 41  1  0
 14 42  1  0
 14 43  1  0
 15 44  1  0
 16 45  1  0
 18 46  1  0
 18 47  1  0
 18 48  1  0
 19 49  1  0
 19 50  1  0
 19 51  1  0
 20 52  1  0
 23 53  1  0
 25 54  1  0
 26 55  1  0
 27 56  1  0
 27 57  1  0
 27 58  1  0
 28 59  1  0
M  END
> <Name>
CHEMBL228661

> <IC50 nM>
2000

> <Molecule_ChEMBL_ID>
CHEMBL228661

> <Smiles>
C=CCOC(CCC)C1=CC(C)(C)Nc2ccc(-c3ccccc3OC)cc21

$$$$
CHEMBL395051
  SciTegic08162514323D

 68 71  0  0  1  0            999 V2000
   -0.6270    1.0020   -1.3810 O   0  0
   -1.8180    1.5970   -0.9200 C   0  0  2  0  0  0
    0.5330    1.5740   -0.8200 C   0  0
   -2.0020    1.2860    0.5460 C   0  0
   -2.9750    1.0780   -1.7750 C   0  0
    1.7520    0.9060   -1.4570 C   0  0
   -2.1110   -0.1190    1.0360 C   0  0
   -2.0670    2.3070    1.4250 C   0  0
    3.0710    1.3530   -0.8200 C   0  0
   -2.2820   -0.3690    2.4280 C   0  0
   -2.0460   -1.2030    0.1220 C   0  0
   -2.2500    2.0890    2.9170 C   0  0
    4.2400    0.4670   -1.2840 C   0  0
    3.3530    2.8370   -1.1120 C   0  0
   -2.3450    0.6550    3.3180 N   0  0
   -2.3860   -1.7100    2.8820 C   0  0
   -2.1510   -2.5380    0.5820 C   0  0
   -1.0550    2.7170    3.6390 C   0  0
   -3.5360    2.8000    3.3470 C   0  0
    5.5820    0.9260   -0.6940 C   0  0
    4.6940    3.2960   -0.5210 C   0  0
   -2.3210   -2.7850    1.9660 C   0  0
   -2.0850   -3.6490   -0.3590 C   0  0
    5.8520    2.4070   -0.9950 C   0  0
   -0.9520   -3.8250   -1.1840 C   0  0
   -3.1630   -4.5510   -0.4430 C   0  0
    0.0700   -2.9930   -1.1240 O   0  0
   -0.9100   -4.9040   -2.0850 C   0  0
   -3.1120   -5.6260   -1.3470 C   0  0
    1.2290   -3.3060   -1.8830 C   0  0
   -1.9870   -5.8030   -2.1670 C   0  0
   -1.7190    2.6780   -1.0220 H   0  0
    0.5140    1.3960    0.2550 H   0  0
    0.5230    2.6420   -1.0370 H   0  0
   -3.4720    1.8820   -2.3170 H   0  0
   -3.7220    0.5830   -1.1540 H   0  0
   -2.6180    0.3530   -2.5070 H   0  0
    1.7670    1.0760   -2.5330 H   0  0
    1.6570   -0.1800   -1.4240 H   0  0
   -1.9860    3.3200    1.0570 H   0  0
    2.9710    1.2370    0.2600 H   0  0
   -1.9160   -1.0120   -0.9340 H   0  0
    4.0550   -0.5710   -1.0060 H   0  0
    4.3030    0.4890   -2.3730 H   0  0
    2.5480    3.4560   -0.7130 H   0  0
    3.3640    3.0000   -2.1910 H   0  0
   -2.4620    0.4610    4.2940 H   0  0
   -2.5160   -1.9300    3.9330 H   0  0
   -0.1160    2.2400    3.3610 H   0  0
   -1.1680    2.6280    4.7200 H   0  0
   -0.9740    3.7780    3.3990 H   0  0
   -4.4140    2.3840    2.8540 H   0  0
   -3.4890    3.8620    3.1030 H   0  0
   -3.6830    2.7120    4.4230 H   0  0
    6.3910    0.3130   -1.0920 H   0  0
    5.5780    0.7690    0.3850 H   0  0
    4.6400    3.2720    0.5680 H   0  0
    4.8850    4.3330   -0.7980 H   0  0
   -2.4040   -3.7960    2.3390 H   0  0
    6.7830    2.7210   -0.5220 H   0  0
    5.9920    2.5380   -2.0690 H   0  0
   -4.0370   -4.4300    0.1810 H   0  0
   -0.0470   -5.0440   -2.7180 H   0  0
   -3.9400   -6.3170   -1.4090 H   0  0
    1.9630   -2.5150   -1.7270 H   0  0
    1.5460   -4.3150   -1.6220 H   0  0
    0.9560   -3.3040   -2.9380 H   0  0
   -1.9480   -6.6290   -2.8610 H   0  0
  1  2  1  0
  1  3  1  0
  2  4  1  0
  2  5  1  0
  3  6  1  0
  4  7  1  0
  4  8  2  0
  6  9  1  0
  7 10  2  0
  7 11  1  0
  8 12  1  0
  9 13  1  0
  9 14  1  0
 10 15  1  0
 10 16  1  0
 11 17  2  0
 12 18  1  0
 12 19  1  0
 13 20  1  0
 14 21  1  0
 16 22  2  0
 17 23  1  0
 20 24  1  0
 23 25  2  0
 23 26  1  0
 25 27  1  0
 25 28  1  0
 26 29  2  0
 27 30  1  0
 28 31  2  0
 12 15  1  0
 17 22  1  0
 21 24  1  0
 29 31  1  0
  2 32  1  0
  3 33  1  0
  3 34  1  0
  5 35  1  0
  5 36  1  0
  5 37  1  0
  6 38  1  0
  6 39  1  0
  8 40  1  0
  9 41  1  0
 11 42  1  0
 13 43  1  0
 13 44  1  0
 14 45  1  0
 14 46  1  0
 15 47  1  0
 16 48  1  0
 18 49  1  0
 18 50  1  0
 18 51  1  0
 19 52  1  0
 19 53  1  0
 19 54  1  0
 20 55  1  0
 20 56  1  0
 21 57  1  0
 21 58  1  0
 22 59  1  0
 24 60  1  0
 24 61  1  0
 26 62  1  0
 28 63  1  0
 29 64  1  0
 30 65  1  0
 30 66  1  0
 30 67  1  0
 31 68  1  0
M  END
> <Name>
CHEMBL395051

> <IC50 nM>
400

> <Molecule_ChEMBL_ID>
CHEMBL395051

> <Smiles>
COc1ccccc1-c1ccc2c(c1)C(C(C)OCCC1CCCCC1)=CC(C)(C)N2

$$$$
CHEMBL386465
  SciTegic08162514323D

 54 56  0  0  1  0            999 V2000
   -3.5960   -4.3910   -0.2990 F   0  0
   -2.3790   -4.1130    0.1640 C   0  0
   -1.9340   -2.7810    0.2170 C   0  0
   -1.5390   -5.1520    0.6010 C   0  0
   -0.6470   -2.4860    0.7050 C   0  0
   -0.2540   -4.8580    1.0880 C   0  0
    0.1950   -3.5270    1.1430 C   0  0
   -0.1860   -1.0740    0.7560 C   0  0
    1.4020   -3.2640    1.6030 O   0  0
    0.7030   -1.2010   -0.4830 C   0  0
    0.6110   -0.7870    2.0270 C   0  0
   -1.3440   -0.0960    0.5530 C   0  0
    2.1330   -4.3200    2.2070 C   0  0
    1.3500    0.1250   -0.8830 C   0  0  1  0  0  0
    1.6860    0.8260    0.2950 O   0  0
    2.6460   -0.2270   -1.6150 C   0  0
    0.4220    1.0080   -1.7170 C   0  0
    3.6700   -0.3240   -0.7090 F   0  0
    2.9360    0.7560   -2.5270 F   0  0
    2.4940   -1.4240   -2.2640 F   0  0
    0.4800    2.4140   -1.2660 N   0  0
   -0.6600    3.1350   -1.0200 C   0  0
    1.7380    2.9690   -1.1060 C   0  0
   -0.5680    4.4960   -0.5860 C   0  0
   -1.9530    2.5610   -1.1840 C   0  0
    1.9220    4.2440   -0.7010 C   0  0
    0.7730    5.1250   -0.4060 C   0  0
   -1.7400    5.2500   -0.3260 C   0  0
   -3.1170    3.3180   -0.9220 C   0  0
    1.0140    6.2560   -0.0550 O   0  0
   -3.0120    4.6600   -0.4940 C   0  0
   -2.5800   -1.9820   -0.1210 H   0  0
   -1.8770   -6.1780    0.5620 H   0  0
    0.3890   -5.6580    1.4240 H   0  0
    0.1440   -1.6230   -1.3160 H   0  0
    1.4610   -1.9710   -0.3340 H   0  0
    0.3010   -1.4260    2.8550 H   0  0
    0.4800    0.2480    2.3400 H   0  0
    1.6760   -0.9510    1.8610 H   0  0
   -2.1230   -0.2290    1.3030 H   0  0
   -1.7990   -0.2340   -0.4300 H   0  0
   -0.9940    0.9340    0.6130 H   0  0
    3.0880   -3.9240    2.5510 H   0  0
    1.5000   -4.7810    2.9670 H   0  0
    2.3380   -5.0720    1.4450 H   0  0
    0.8610    1.1910    0.6520 H   0  0
   -0.6070    0.6540   -1.6500 H   0  0
    0.6870    0.9570   -2.7720 H   0  0
    2.6290    2.3870   -1.3030 H   0  0
   -2.0780    1.5370   -1.5080 H   0  0
    2.9260    4.6250   -0.5920 H   0  0
   -1.6720    6.2770    0.0000 H   0  0
   -4.0920    2.8690   -1.0490 H   0  0
   -3.9040    5.2340   -0.2950 H   0  0
  1  2  1  0
  2  3  2  0
  2  4  1  0
  3  5  1  0
  4  6  2  0
  5  7  2  0
  5  8  1  0
  7  9  1  0
  8 10  1  0
  8 11  1  0
  8 12  1  0
  9 13  1  0
 10 14  1  0
 14 15  1  0
 14 16  1  0
 14 17  1  0
 16 18  1  0
 16 19  1  0
 16 20  1  0
 17 21  1  0
 21 22  1  0
 21 23  1  0
 22 24  2  0
 22 25  1  0
 23 26  2  0
 24 27  1  0
 24 28  1  0
 25 29  2  0
 27 30  2  0
 28 31  2  0
  6  7  1  0
 26 27  1  0
 29 31  1  0
  3 32  1  0
  4 33  1  0
  6 34  1  0
 10 35  1  0
 10 36  1  0
 11 37  1  0
 11 38  1  0
 11 39  1  0
 12 40  1  0
 12 41  1  0
 12 42  1  0
 13 43  1  0
 13 44  1  0
 13 45  1  0
 15 46  1  0
 17 47  1  0
 17 48  1  0
 23 49  1  0
 25 50  1  0
 26 51  1  0
 28 52  1  0
 29 53  1  0
 31 54  1  0
M  END
> <Name>
CHEMBL386465

> <IC50 nM>
10

> <Molecule_ChEMBL_ID>
CHEMBL386465

> <Smiles>
COc1ccc(F)cc1C(C)(C)CC(O)(Cn1ccc(=O)c2ccccc21)C(F)(F)F

$$$$
CHEMBL218976
  SciTegic08162514323D

 57 59  0  0  1  0            999 V2000
   -2.7440    5.7190   -2.4410 F   0  0
   -1.7110    5.1190   -1.8550 C   0  0
   -1.8910    3.8910   -1.1970 C   0  0
   -0.4390    5.7170   -1.8930 C   0  0
   -0.7970    3.2560   -0.5780 C   0  0
    0.6520    5.0840   -1.2730 C   0  0
    0.4790    3.8540   -0.6150 C   0  0
   -0.9980    1.9550    0.1130 C   0  0
    1.5100    3.2700   -0.0370 O   0  0
   -0.3220    1.1370   -0.9860 C   0  0
   -2.4820    1.6230    0.2700 C   0  0
   -0.2400    1.9000    1.4400 C   0  0
    2.7970    3.8260   -0.2520 C   0  0
   -0.5450   -0.3670   -0.8240 C   0  0  1  0  0  0
   -1.8610   -0.6660   -1.2280 O   0  0
    0.4220   -1.0570   -1.7870 C   0  0
   -0.3710   -0.8360    0.6210 C   0  0
    0.3070   -0.4920   -3.0310 F   0  0
    0.1170   -2.3930   -1.8610 F   0  0
    1.7070   -0.9060   -1.3340 F   0  0
   -0.3670   -2.3120    0.7030 N   0  0
    0.7910   -3.0250    0.8420 C   0  0
   -1.6950   -2.9800    0.6210 C   0  0
    0.7640   -4.4550    0.9420 C   0  0
    2.0530   -2.3650    0.8910 C   0  0
   -1.7010   -4.3340    1.3460 C   0  0
    1.9730   -5.1800    1.0860 C   0  0
   -0.5210   -5.2010    0.8910 C   0  0
    3.2520   -3.1000    1.0350 C   0  0
    3.2130   -4.5060    1.1330 C   0  0
   -2.8690    3.4320   -1.1700 H   0  0
   -0.2970    6.6620   -2.3960 H   0  0
    1.6270    5.5450   -1.3050 H   0  0
    0.7420    1.3650   -1.0390 H   0  0
   -0.6500    1.4710   -1.9710 H   0  0
   -3.0330    2.4360    0.7440 H   0  0
   -2.6170    0.7290    0.8770 H   0  0
   -2.9390    1.4360   -0.7030 H   0  0
   -0.1930    2.8770    1.9220 H   0  0
    0.7830    1.5570    1.2850 H   0  0
   -0.7230    1.2110    2.1330 H   0  0
    3.5250    3.2150    0.2810 H   0  0
    2.9490    3.9320   -1.3260 H   0  0
    2.8140    4.8240    0.1880 H   0  0
   -2.4120   -0.6720   -0.4320 H   0  0
   -1.1700   -0.4430    1.2520 H   0  0
    0.5590   -0.4510    1.0430 H   0  0
   -1.9470   -3.1190   -0.4300 H   0  0
   -2.4610   -2.3300    1.0490 H   0  0
    2.1290   -1.2890    0.8200 H   0  0
   -1.6450   -4.1720    2.4240 H   0  0
   -2.6450   -4.8540    1.1640 H   0  0
    1.9550   -6.2580    1.1620 H   0  0
   -0.6860   -5.5330   -0.1370 H   0  0
   -0.4730   -6.1000    1.5060 H   0  0
    4.1990   -2.5820    1.0720 H   0  0
    4.1290   -5.0640    1.2440 H   0  0
  1  2  1  0
  2  3  2  0
  2  4  1  0
  3  5  1  0
  4  6  2  0
  5  7  2  0
  5  8  1  0
  7  9  1  0
  8 10  1  0
  8 11  1  0
  8 12  1  0
  9 13  1  0
 10 14  1  0
 14 15  1  0
 14 16  1  0
 14 17  1  0
 16 18  1  0
 16 19  1  0
 16 20  1  0
 17 21  1  0
 21 22  1  0
 21 23  1  0
 22 24  2  0
 22 25  1  0
 23 26  1  0
 24 27  1  0
 24 28  1  0
 25 29  2  0
 27 30  2  0
  6  7  1  0
 26 28  1  0
 29 30  1  0
  3 31  1  0
  4 32  1  0
  6 33  1  0
 10 34  1  0
 10 35  1  0
 11 36  1  0
 11 37  1  0
 11 38  1  0
 12 39  1  0
 12 40  1  0
 12 41  1  0
 13 42  1  0
 13 43  1  0
 13 44  1  0
 15 45  1  0
 17 46  1  0
 17 47  1  0
 23 48  1  0
 23 49  1  0
 25 50  1  0
 26 51  1  0
 26 52  1  0
 27 53  1  0
 28 54  1  0
 28 55  1  0
 29 56  1  0
 30 57  1  0
M  END
> <Name>
CHEMBL218976

> <IC50 nM>
950

> <Molecule_ChEMBL_ID>
CHEMBL218976

> <Smiles>
COc1ccc(F)cc1C(C)(C)CC(O)(CN1CCCc2ccccc21)C(F)(F)F

$$$$
CHEMBL2022863
  SciTegic08162514323D

 88 95  0  0  1  0            999 V2000
    5.9300   -0.0250   -2.7130 S   0  0
    7.4650   -0.3560   -2.0900 C   0  0
    4.9770    0.2230   -1.2660 C   0  0
    8.0410   -0.4550   -0.8300 N   0  0
    8.3090   -0.5720   -3.2190 C   0  0
    3.5550    0.5330   -1.6490 C   0  0
    9.3830   -0.7540   -0.6660 C   0  0
    9.6520   -0.8710   -3.0820 N   0  0
    3.2870    0.9780   -2.7400 O   0  0
    2.4730    0.2730   -0.6290 C   0  0  2  0  0  0
   10.2070   -0.9650   -1.8200 C   0  0
    9.9510   -0.8500    0.6290 C   0  0
    2.1640   -1.1090   -0.7050 O   0  0
    1.1990    1.1350   -0.8050 C   0  0  2  0  0  0
    2.8910    0.6020    0.8200 C   0  0
   11.5800   -1.2700   -1.6520 C   0  0
   11.3240   -1.1520    0.7810 C   0  0
    0.5000    0.9140    0.5450 C   0  0  1  0  0  0
    0.2300    0.7460   -1.9380 C   0  0
    1.6450    2.6000   -0.9430 C   0  0
    1.6430    1.1390    1.5350 C   0  0
   12.1350   -1.3610   -0.3560 C   0  0
   -0.7580    1.7870    0.7070 C   0  0  1  0  0  0
   -1.1290    1.4730   -1.8340 C   0  0  1  0  0  0
   -1.7620    1.3670   -0.4160 C   0  0  2  0  0  0
   -1.3180    1.6090    2.1450 C   0  0
   -0.9770    2.8260   -2.2210 O   0  0
   -3.1470    2.0660   -0.2270 C   0  0  2  0  0  0
   -2.7460    2.1580    2.3160 C   0  0
   -3.5570    1.5960    1.1760 C   0  0
   -4.1880    1.7320   -1.3520 C   0  0
   -2.9730    3.5940   -0.2190 C   0  0
   -4.5160    0.6680    1.3870 C   0  0
   -5.0120    0.4820   -1.0920 C   0  0
   -5.1600    0.0530    0.2150 C   0  0
   -5.6720   -0.2770   -2.0570 C   0  0
   -5.9840   -1.0140    0.0660 N   0  0
   -6.2660   -1.1970   -1.2520 N   0  0
   -6.4980   -1.8540    1.1640 C   0  0
   -7.7270   -2.6620    0.7050 C   0  0
   -5.3910   -2.7790    1.7050 C   0  0
   -8.2460   -3.5840    1.8180 C   0  0
   -5.9160   -3.6990    2.8160 C   0  0
   -7.1390   -4.5020    2.3550 C   0  0
    5.0080   -0.6780   -0.6500 H   0  0
    5.3970    1.0510   -0.6910 H   0  0
    7.9060   -0.5060   -4.2210 H   0  0
    9.3460   -0.6930    1.5100 H   0  0
    2.9590   -1.5960   -0.4360 H   0  0
    3.6560    1.3650    0.8360 H   0  0
    3.3050   -0.2520    1.3420 H   0  0
   12.2190   -1.4340   -2.5100 H   0  0
   11.7520   -1.2250    1.7700 H   0  0
    0.1930   -0.1190    0.6270 H   0  0
    0.0310   -0.3240   -1.9020 H   0  0
    0.6890    0.9280   -2.9080 H   0  0
    2.4630    2.8420   -0.2640 H   0  0
    0.8180    3.2770   -0.7250 H   0  0
    1.9840    2.8050   -1.9590 H   0  0
    1.7580    2.1910    1.7500 H   0  0
    1.4610    0.6370    2.4750 H   0  0
   13.1840   -1.5940   -0.2320 H   0  0
   -0.4980    2.8400    0.5780 H   0  0
   -1.7870    1.0160   -2.5700 H   0  0
   -1.9410    0.2970   -0.2850 H   0  0
   -0.6560    2.0900    2.8650 H   0  0
   -1.3240    0.5490    2.4040 H   0  0
   -0.7830    2.8320   -3.1700 H   0  0
   -2.7520    3.2480    2.2950 H   0  0
   -3.1600    1.8610    3.2790 H   0  0
   -4.9160    2.5430   -1.4080 H   0  0
   -3.7380    1.6990   -2.3420 H   0  0
   -3.8540    4.0800    0.1970 H   0  0
   -2.0980    3.8790    0.3670 H   0  0
   -2.8300    3.9710   -1.2310 H   0  0
   -4.7850    0.3590    2.3870 H   0  0
   -5.7270   -0.1970   -3.1350 H   0  0
   -6.8090   -1.1860    1.9690 H   0  0
   -7.4710   -3.2720   -0.1640 H   0  0
   -8.5260   -1.9920    0.3870 H   0  0
   -4.5550   -2.1920    2.0860 H   0  0
   -4.9900   -3.3970    0.8980 H   0  0
   -9.0780   -4.1820    1.4490 H   0  0
   -8.6390   -2.9790    2.6370 H   0  0
   -6.1840   -3.1000    3.6880 H   0  0
   -5.1270   -4.3790    3.1410 H   0  0
   -7.5220   -5.1060    3.1800 H   0  0
   -6.8400   -5.2010    1.5740 H   0  0
  1  2  1  0
  1  3  1  0
  2  4  2  0
  2  5  1  0
  3  6  1  0
  4  7  1  0
  5  8  2  0
  6  9  2  0
  6 10  1  0
  7 11  1  0
  7 12  2  0
 10 13  1  0
 10 14  1  0
 10 15  1  0
 11 16  2  0
 12 17  1  0
 14 18  1  0
 14 19  1  0
 14 20  1  0
 15 21  1  0
 16 22  1  0
 18 23  1  0
 19 24  1  0
 25 23  1  0
 23 26  1  0
 24 27  1  0
 25 28  1  0
 26 29  1  0
 28 30  1  0
 28 31  1  0
 28 32  1  0
 30 33  2  0
 31 34  1  0
 33 35  1  0
 34 36  1  0
 35 37  1  0
 36 38  2  0
 37 39  1  0
 39 40  1  0
 39 41  1  0
 40 42  1  0
 41 43  1  0
 42 44  1  0
  8 11  1  0
 17 22  2  0
 18 21  1  0
 24 25  1  0
 29 30  1  0
 34 35  2  0
 37 38  1  0
 43 44  1  0
  3 45  1  0
  3 46  1  0
  5 47  1  0
 12 48  1  0
 13 49  1  0
 15 50  1  0
 15 51  1  0
 16 52  1  0
 17 53  1  0
 18 54  1  0
 19 55  1  0
 19 56  1  0
 20 57  1  0
 20 58  1  0
 20 59  1  0
 21 60  1  0
 21 61  1  0
 22 62  1  0
 23 63  1  0
 24 64  1  0
 25 65  1  0
 26 66  1  0
 26 67  1  0
 27 68  1  0
 29 69  1  0
 29 70  1  0
 31 71  1  0
 31 72  1  0
 32 73  1  0
 32 74  1  0
 32 75  1  0
 33 76  1  0
 36 77  1  0
 39 78  1  0
 40 79  1  0
 40 80  1  0
 41 81  1  0
 41 82  1  0
 42 83  1  0
 42 84  1  0
 43 85  1  0
 43 86  1  0
 44 87  1  0
 44 88  1  0
M  END
> <Name>
CHEMBL2022863

> <IC50 nM>
12.4

> <Molecule_ChEMBL_ID>
CHEMBL2022863

> <Smiles>
C[C@]12Cc3cnn(C4CCCCC4)c3C=C1CC[C@@H]1[C@@H]2[C@@H](O)C[C@@]2(C)[C@H]1CC[C@]2(O)C(=O)CSc1cnc2ccccc2n1

$$$$
CHEMBL503848
  SciTegic08162514323D

 77 81  0  0  1  0            999 V2000
   -3.4410   -0.0510   -0.7150 F   0  0
   -3.3030    0.7150    0.4260 C   0  0  2  0  0  0
   -4.7560    1.0960    0.8870 C   0  0  2  0  0  0
   -2.3980    1.9140   -0.0240 C   0  0  1  0  0  0
   -2.6110   -0.1840    1.4900 C   0  0  2  0  0  0
   -5.5410   -0.1700    1.2420 C   0  0
   -5.4550    1.9550   -0.1640 C   0  0
   -4.7500    1.9220    2.1800 C   0  0
   -2.4200    2.9630    0.9280 O   0  0
   -0.9240    1.5200   -0.2890 C   0  0
   -1.1780   -0.5350    1.0510 C   0  0  1  0  0  0
   -3.4200   -1.4750    1.7420 C   0  0
   -6.7890   -0.4000    0.7810 C   0  0
   -4.8650   -1.1700    2.1600 C   0  0
   -6.6970    1.6970   -0.6110 C   0  0
   -0.3160    0.7210    0.8790 C   0  0  1  0  0  0
   -0.3530   -1.3730    2.0270 C   0  0
   -7.4570    0.5430   -0.1230 C   0  0
    1.0610    0.0720    0.6350 C   0  0  1  0  0  0
   -0.2280    1.5550    2.1680 C   0  0
    1.1130   -1.0430    1.7010 C   0  0  1  0  0  0
   -8.6060    0.3730   -0.4570 O   0  0
    1.0760   -0.5410   -0.6490 O   0  0
    2.2230    1.0390    0.6600 C   0  0
    1.8300   -0.6370    2.9900 C   0  0
    2.2770   -1.0120   -0.9710 C   0  0
    2.0570    2.2190    0.4470 O   0  0
    3.5940    0.4920    0.9610 C   0  0
    2.8380   -1.8960   -0.3670 O   0  0
    2.8730   -0.4320   -2.0550 N   0  0
    4.1900    1.2540    1.9840 O   0  0
    4.2070   -0.8950   -2.4830 C   0  0
    4.1110   -2.2460   -3.2150 C   0  0
    4.9000    0.1680   -3.3600 C   0  0
    5.4840   -2.7230   -3.7090 C   0  0
    6.2740   -0.3140   -3.8520 C   0  0
    6.1720   -1.6620   -4.5800 C   0  0
   -2.7950    2.3460   -0.9430 H   0  0
   -2.5610    0.3650    2.4320 H   0  0
   -4.9400    2.8150   -0.5680 H   0  0
   -5.7170    1.8980    2.6820 H   0  0
   -4.5080    2.9650    1.9710 H   0  0
   -4.0040    1.5410    2.8770 H   0  0
   -2.8810    3.7110    0.5180 H   0  0
   -0.8930    0.9140   -1.1950 H   0  0
   -0.3180    2.4040   -0.5040 H   0  0
   -1.2250   -1.0760    0.1130 H   0  0
   -3.4260   -2.0960    0.8460 H   0  0
   -2.9470   -2.0720    2.5190 H   0  0
   -7.3150   -1.2970    1.0780 H   0  0
   -5.4340   -2.1020    2.2030 H   0  0
   -4.8670   -0.7660    3.1740 H   0  0
   -7.1390    2.3560   -1.3460 H   0  0
   -0.5640   -2.4280    1.9120 H   0  0
   -0.6110   -1.1090    3.0450 H   0  0
    0.3950    2.4380    2.0390 H   0  0
    0.1930    0.9630    2.9800 H   0  0
   -1.2190    1.8890    2.4780 H   0  0
    1.6150   -1.9080    1.3010 H   0  0
    1.1910   -0.8070    3.8570 H   0  0
    2.7520   -1.2050    3.1130 H   0  0
    2.0920    0.4200    2.9710 H   0  0
    4.2230    0.5640    0.0740 H   0  0
    3.5140   -0.5370    1.3070 H   0  0
    2.4000    0.2990   -2.5490 H   0  0
    5.0670    0.8750    2.1500 H   0  0
    4.8010   -1.0350   -1.5780 H   0  0
    3.6800   -3.0040   -2.5610 H   0  0
    3.4400   -2.1620   -4.0700 H   0  0
    5.0220    1.0980   -2.8050 H   0  0
    4.2790    0.4020   -4.2250 H   0  0
    5.3770   -3.6500   -4.2700 H   0  0
    6.1190   -2.9510   -2.8520 H   0  0
    6.9490   -0.4140   -3.0020 H   0  0
    6.7130    0.4320   -4.5120 H   0  0
    7.1640   -2.0040   -4.8710 H   0  0
    5.6060   -1.5310   -5.5040 H   0  0
  2  1  1  0
  2  3  1  0
  2  4  1  0
  2  5  1  0
  3  6  1  0
  3  7  1  0
  3  8  1  0
  4  9  1  0
  4 10  1  0
  5 11  1  0
  5 12  1  0
  6 13  2  0
  6 14  1  0
  7 15  2  0
 10 16  1  0
 11 17  1  0
 13 18  1  0
 16 19  1  0
 16 20  1  0
 17 21  1  0
 18 22  2  0
 19 23  1  0
 19 24  1  0
 21 25  1  0
 23 26  1  0
 24 27  2  0
 24 28  1  0
 26 29  2  0
 26 30  1  0
 28 31  1  0
 30 32  1  0
 32 33  1  0
 32 34  1  0
 33 35  1  0
 34 36  1  0
 35 37  1  0
 11 16  1  0
 12 14  1  0
 15 18  1  0
 19 21  1  0
 36 37  1  0
  4 38  1  0
  5 39  1  0
  7 40  1  0
  8 41  1  0
  8 42  1  0
  8 43  1  0
  9 44  1  0
 10 45  1  0
 10 46  1  0
 11 47  1  0
 12 48  1  0
 12 49  1  0
 13 50  1  0
 14 51  1  0
 14 52  1  0
 15 53  1  0
 17 54  1  0
 17 55  1  0
 20 56  1  0
 20 57  1  0
 20 58  1  0
 21 59  1  0
 25 60  1  0
 25 61  1  0
 25 62  1  0
 28 63  1  0
 28 64  1  0
 30 65  1  0
 31 66  1  0
 32 67  1  0
 33 68  1  0
 33 69  1  0
 34 70  1  0
 34 71  1  0
 35 72  1  0
 35 73  1  0
 36 74  1  0
 36 75  1  0
 37 76  1  0
 37 77  1  0
M  END
> <Name>
CHEMBL503848

> <IC50 nM>
3.5

> <Molecule_ChEMBL_ID>
CHEMBL503848

> <Smiles>
C[C@H]1C[C@H]2[C@@H]3CCC4=CC(=O)C=C[C@]4(C)[C@@]3(F)[C@@H](O)C[C@]2(C)[C@@]1(OC(=O)NC1CCCCC1)C(=O)CO

$$$$
CHEMBL364031
  SciTegic08162514323D

 47 51  0  0  1  0            999 V2000
   -7.1760   -3.3500   -0.5550 F   0  0
   -6.2280   -2.4140   -0.6000 C   0  0
   -5.1860   -2.4220    0.3400 C   0  0
   -6.2730   -1.4160   -1.5920 C   0  0
   -4.1850   -1.4340    0.2930 C   0  0
   -5.2750   -0.4280   -1.6410 C   0  0
   -4.2280   -0.4360   -0.6990 C   0  0
   -3.2640    0.5200   -0.7480 N   0  0
   -3.4940    1.8460   -0.9490 N   0  0
   -1.9300    0.3070   -0.6020 C   0  0
   -2.3570    2.5940   -0.9610 C   0  0
   -1.4160    1.5880   -0.7500 C   0  0
   -1.1130   -0.9020   -0.3590 C   0  0
    0.1040    1.7640   -0.6900 C   0  0
    0.1920   -0.6970   -0.0740 C   0  0
    0.7620    0.6800    0.2170 C   0  0  1  0  0  0
    1.2500   -1.7540   -0.0430 C   0  0
    2.2930    0.4320    0.0230 C   0  0  2  0  0  0
    0.4240    1.0100    1.6780 C   0  0
    2.4510   -0.9840   -0.5880 C   0  0
    3.0550    0.5100    1.2210 O   0  0
    2.9420    1.4040   -0.7740 O   0  0
    4.3670    0.9790    0.9570 C   0  0  2  0  0  0
    4.3240    1.3630   -0.5220 C   0  0
    5.3790   -0.0860    1.2970 C   0  0
    6.3460    0.2070    2.1820 C   0  0
   -5.1460   -3.1860    1.1030 H   0  0
   -7.0740   -1.4080   -2.3170 H   0  0
   -3.3910   -1.4570    1.0250 H   0  0
   -5.3280    0.3300   -2.4100 H   0  0
   -2.2640    3.6620   -1.1020 H   0  0
   -1.5350   -1.8950   -0.4260 H   0  0
    0.3560    2.7660   -0.3380 H   0  0
    0.4790    1.6820   -1.7090 H   0  0
    0.9940   -2.6040   -0.6580 H   0  0
    1.4140   -2.0880    0.9730 H   0  0
   -0.6500    1.1370    1.8070 H   0  0
    0.7700    0.2170    2.3400 H   0  0
    0.9100    1.9360    1.9860 H   0  0
    2.3810   -0.9410   -1.6660 H   0  0
    3.3890   -1.4690   -0.3520 H   0  0
    4.5290    1.8480    1.5800 H   0  0
    4.7600    0.6020   -1.1540 H   0  0
    4.7810    2.3150   -0.7440 H   0  0
    5.4120   -1.0880    0.8930 H   0  0
    7.1350   -0.4470    2.5230 H   0  0
    6.3150    1.2090    2.5860 H   0  0
  1  2  1  0
  2  3  2  0
  2  4  1  0
  3  5  1  0
  4  6  2  0
  5  7  2  0
  7  8  1  0
  8  9  1  0
  8 10  1  0
  9 11  2  0
 10 12  2  0
 10 13  1  0
 12 14  1  0
 13 15  2  0
 14 16  1  0
 15 17  1  0
 16 18  1  0
 16 19  1  0
 17 20  1  0
 18 21  1  0
 18 22  1  0
 21 23  1  0
 22 24  1  0
 23 25  1  0
 25 26  2  0
  6  7  1  0
 11 12  1  0
 15 16  1  0
 18 20  1  0
 23 24  1  0
  3 27  1  0
  4 28  1  0
  5 29  1  0
  6 30  1  0
 11 31  1  0
 13 32  1  0
 14 33  1  0
 14 34  1  0
 17 35  1  0
 17 36  1  0
 19 37  1  0
 19 38  1  0
 19 39  1  0
 20 40  1  0
 20 41  1  0
 23 42  1  0
 24 43  1  0
 24 44  1  0
 25 45  1  0
 26 46  1  0
 26 47  1  0
M  END
> <Name>
CHEMBL364031

> <IC50 nM>
49

> <Molecule_ChEMBL_ID>
CHEMBL364031

> <Smiles>
C=C[C@H]1CO[C@@]2(CCC3=Cc4c(cnn4-c4ccc(F)cc4)C[C@@]32C)O1

$$$$
CHEMBL195723
  SciTegic08162514323D

 51 55  0  0  1  0            999 V2000
   -7.6820   -3.3560    1.1780 F   0  0
   -6.7110   -2.4960    0.8830 C   0  0
   -5.4900   -2.5450    1.5800 C   0  0
   -6.9040   -1.5350   -0.1250 C   0  0
   -4.4630   -1.6390    1.2680 C   0  0
   -5.8790   -0.6270   -0.4390 C   0  0
   -4.6560   -0.6760    0.2580 C   0  0
   -3.6640    0.2010   -0.0450 N   0  0
   -3.8480    1.5330   -0.2600 N   0  0
   -2.3480   -0.1040   -0.1740 C   0  0
   -2.6950    2.1950   -0.5530 C   0  0
   -1.7970    1.1330   -0.4940 C   0  0
   -1.5720   -1.3570   -0.0530 C   0  0
   -0.2910    1.1970   -0.7640 C   0  0
   -0.2270   -1.2300   -0.0550 C   0  0
    0.4690    0.1150    0.0570 C   0  0  1  0  0  0
    0.7520   -2.3520   -0.2090 C   0  0
    1.9160   -0.2420   -0.4180 C   0  0
    0.4360    0.5310    1.5370 C   0  0
    1.8610   -1.6700   -1.0060 C   0  0
    2.8750   -0.2090    0.6330 O   0  0
    2.4410    0.6680   -1.3730 O   0  0
    4.0550    0.4260    0.1950 C   0  0  1  0  0  0
    3.4820    1.4280   -0.8010 C   0  0  1  0  0  0
    4.8010    1.0230    1.3590 C   0  0
    4.4390    1.9040   -1.8630 C   0  0
    6.1190    0.7930    1.4630 C   0  0
    4.8010    3.1970   -1.8650 C   0  0
   -5.3380   -3.2810    2.3560 H   0  0
   -7.8400   -1.4940   -0.6640 H   0  0
   -3.5330   -1.6910    1.8150 H   0  0
   -6.0470    0.1040   -1.2190 H   0  0
   -2.5610    3.2460   -0.7660 H   0  0
   -2.0590   -2.3180    0.0180 H   0  0
   -0.1470    1.0310   -1.8320 H   0  0
    0.0940    2.1930   -0.5450 H   0  0
    0.3260   -3.1930   -0.7360 H   0  0
    1.0960   -2.6820    0.7600 H   0  0
   -0.5860    0.7300    1.8580 H   0  0
    0.8590   -0.2520    2.1660 H   0  0
    1.0180    1.4380    1.6950 H   0  0
    1.5780   -1.6410   -2.0510 H   0  0
    2.8010   -2.2050   -0.9490 H   0  0
    4.6680   -0.3160   -0.3010 H   0  0
    3.0350    2.2720   -0.2950 H   0  0
    4.3750    1.6350    2.1430 H   0  0
    4.8770    1.3010   -2.6440 H   0  0
    6.7830    1.1480    2.2360 H   0  0
    6.5450    0.1840    0.6800 H   0  0
    5.4710    3.6840   -2.5590 H   0  0
    4.3650    3.8010   -1.0820 H   0  0
  1  2  1  0
  2  3  2  0
  2  4  1  0
  3  5  1  0
  4  6  2  0
  5  7  2  0
  7  8  1  0
  8  9  1  0
  8 10  1  0
  9 11  2  0
 10 12  2  0
 10 13  1  0
 12 14  1  0
 13 15  2  0
 14 16  1  0
 15 17  1  0
 16 18  1  0
 16 19  1  0
 17 20  1  0
 18 21  1  0
 18 22  1  0
 21 23  1  0
 22 24  1  0
 23 25  1  0
 24 26  1  0
 25 27  2  0
 26 28  2  0
  6  7  1  0
 11 12  1  0
 15 16  1  0
 18 20  1  0
 23 24  1  0
  3 29  1  0
  4 30  1  0
  5 31  1  0
  6 32  1  0
 11 33  1  0
 13 34  1  0
 14 35  1  0
 14 36  1  0
 17 37  1  0
 17 38  1  0
 19 39  1  0
 19 40  1  0
 19 41  1  0
 20 42  1  0
 20 43  1  0
 23 44  1  0
 24 45  1  0
 25 46  1  0
 26 47  1  0
 27 48  1  0
 27 49  1  0
 28 50  1  0
 28 51  1  0
M  END
> <Name>
CHEMBL195723

> <IC50 nM>
8

> <Molecule_ChEMBL_ID>
CHEMBL195723

> <Smiles>
C=C[C@H]1OC2(CCC3=Cc4c(cnn4-c4ccc(F)cc4)C[C@@]32C)O[C@@H]1C=C

$$$$
CHEMBL362988
  SciTegic08162514323D

 52 56  0  0  1  0            999 V2000
   -7.2190    3.1060   -2.6760 F   0  0
   -6.3140    2.3610   -2.0410 C   0  0
   -5.1090    2.0220   -2.6820 C   0  0
   -6.5630    1.9180   -0.7330 C   0  0
   -4.1540    1.2380   -2.0140 C   0  0
   -5.6090    1.1350   -0.0610 C   0  0
   -4.4020    0.7910   -0.6990 C   0  0
   -3.4780    0.0330   -0.0530 N   0  0
   -3.7660   -1.0740    0.6850 N   0  0
   -2.1390    0.2540   -0.0390 C   0  0
   -2.6640   -1.6520    1.2380 C   0  0
   -1.6840   -0.7830    0.7660 C   0  0
   -1.2680    1.2790   -0.6520 C   0  0
   -0.1840   -0.8550    1.0620 C   0  0
    0.0630    1.0570   -0.5860 C   0  0
    0.6580   -0.2540   -0.1060 C   0  0  1  0  0  0
    1.1250    2.0490   -0.9300 C   0  0
    2.1560    0.1290    0.2090 C   0  0  1  0  0  0
    0.5430   -1.2110   -1.3030 C   0  0
    2.1950    1.6780    0.0900 C   0  0
    2.5240   -0.2380    1.5470 O   0  0
    3.0680   -0.3770   -0.7870 O   0  0
    3.9180   -0.2190    1.8120 C   0  0  2  0  0  0
    3.8170   -1.5330   -0.4240 C   0  0  1  0  0  0
    4.6190   -1.2170    0.8590 C   0  0
    4.1230   -0.5550    3.2910 C   0  0
    2.8730   -2.7300   -0.2560 C   0  0
   -4.9160    2.3590   -3.6900 H   0  0
   -7.4860    2.1780   -0.2360 H   0  0
   -3.2340    0.9860   -2.5220 H   0  0
   -5.8180    0.8030    0.9470 H   0  0
   -2.6150   -2.5350    1.8630 H   0  0
   -1.6780    2.1640   -1.1190 H   0  0
   -0.0160   -0.2930    1.9800 H   0  0
    0.1130   -1.8850    1.2640 H   0  0
    1.4630    1.8990   -1.9440 H   0  0
    0.7830    3.0680   -0.8150 H   0  0
    1.3240   -1.0350   -2.0410 H   0  0
   -0.4200   -1.0920   -1.7990 H   0  0
    0.6210   -2.2480   -0.9750 H   0  0
    3.1660    2.0680   -0.1880 H   0  0
    1.9420    2.1430    1.0350 H   0  0
    4.2790    0.7950    1.6250 H   0  0
    4.5020   -1.7460   -1.2440 H   0  0
    5.5920   -0.8090    0.5880 H   0  0
    4.8360   -2.1520    1.3790 H   0  0
    3.6270    0.1640    3.9430 H   0  0
    5.1840   -0.5590    3.5410 H   0  0
    3.7230   -1.5430    3.5190 H   0  0
    2.4240   -3.0040   -1.2110 H   0  0
    3.4080   -3.5900    0.1440 H   0  0
    2.0650   -2.4880    0.4350 H   0  0
  1  2  1  0
  2  3  2  0
  2  4  1  0
  3  5  1  0
  4  6  2  0
  5  7  2  0
  7  8  1  0
  8  9  1  0
  8 10  1  0
  9 11  2  0
 10 12  2  0
 10 13  1  0
 12 14  1  0
 13 15  2  0
 14 16  1  0
 15 17  1  0
 16 18  1  0
 16 19  1  0
 17 20  1  0
 18 21  1  0
 18 22  1  0
 21 23  1  0
 22 24  1  0
 23 25  1  0
 23 26  1  0
 24 27  1  0
  6  7  1  0
 11 12  1  0
 15 16  1  0
 18 20  1  0
 24 25  1  0
  3 28  1  0
  4 29  1  0
  5 30  1  0
  6 31  1  0
 11 32  1  0
 13 33  1  0
 14 34  1  0
 14 35  1  0
 17 36  1  0
 17 37  1  0
 19 38  1  0
 19 39  1  0
 19 40  1  0
 20 41  1  0
 20 42  1  0
 23 43  1  0
 24 44  1  0
 25 45  1  0
 25 46  1  0
 26 47  1  0
 26 48  1  0
 26 49  1  0
 27 50  1  0
 27 51  1  0
 27 52  1  0
M  END
> <Name>
CHEMBL362988

> <IC50 nM>
3.1

> <Molecule_ChEMBL_ID>
CHEMBL362988

> <Smiles>
C[C@@H]1C[C@H](C)O[C@@]2(CCC3=Cc4c(cnn4-c4ccc(F)cc4)C[C@@]32C)O1

$$$$
CHEMBL305417
  SciTegic08162514323D

 54 56  0  0  0  0            999 V2000
    0.1950   -2.4670    3.4880 S   0  0
   -0.8440   -1.7440    4.2050 O   0  0
   -0.2660   -3.7230    2.9260 O   0  0
    0.6800   -1.5290    2.2600 N   0  0
    1.5470   -2.7990    4.6120 C   0  0
   -0.2070   -1.1800    1.2720 C   0  0
    0.1970   -0.3970    0.1640 C   0  0
   -1.5430   -1.6130    1.3730 C   0  0
   -0.7480   -0.0570   -0.8340 C   0  0
    1.6130    0.0680    0.0470 C   0  0
   -2.4750   -1.2740    0.3810 C   0  0
   -0.3950    0.6990   -1.9240 N   0  0
   -2.0800   -0.4980   -0.7190 C   0  0
   -0.0550    2.1230   -1.7770 C   0  0
   -0.3500    0.0900   -3.2600 C   0  0
   -0.7090    2.7230   -0.5840 C   0  0
    0.4410   -1.1700   -3.2600 C   0  0
    0.0700    3.1430    0.5080 C   0  0
   -2.1060    2.8690   -0.5470 C   0  0
   -0.2170   -2.4140   -3.2600 C   0  0
    1.8460   -1.1190   -3.2600 C   0  0
   -0.5470    3.7090    1.6370 C   0  0
   -2.7250    3.4360    0.5800 C   0  0
    0.5290   -3.6040   -3.2600 C   0  0
    2.5920   -2.3110   -3.2600 C   0  0
   -1.9450    3.8550    1.6720 C   0  0
    0.2750    4.1540    2.7910 C   0  0
    1.9340   -3.5530   -3.2600 C   0  0
    1.6250   -1.2050    2.2190 H   0  0
    1.2790   -3.4260    5.4610 H   0  0
    1.9340   -1.8580    5.0020 H   0  0
    2.3540   -3.2930    4.0720 H   0  0
   -1.8710   -2.2130    2.2130 H   0  0
    1.8730    0.4780   -0.9280 H   0  0
    2.2870   -0.7660    0.2480 H   0  0
    1.8050    0.8380    0.7950 H   0  0
   -3.4980   -1.6090    0.4650 H   0  0
   -2.8160   -0.2480   -1.4710 H   0  0
    1.0270    2.2270   -1.6910 H   0  0
   -0.3710    2.6600   -2.6720 H   0  0
    0.0940    0.7950   -3.9610 H   0  0
   -1.3650   -0.1190   -3.5920 H   0  0
    1.1450    3.0310    0.4810 H   0  0
   -2.7110    2.5470   -1.3850 H   0  0
   -1.2970   -2.4590   -3.2600 H   0  0
    2.3570   -0.1680   -3.2600 H   0  0
   -3.7990    3.5470    0.6080 H   0  0
    0.0230   -4.5590   -3.2600 H   0  0
    3.6720   -2.2720   -3.2600 H   0  0
   -2.4260    4.2890    2.5370 H   0  0
   -0.3730    4.5720    3.5610 H   0  0
    0.8750    3.3200    3.1530 H   0  0
    0.9590    4.9410    2.4690 H   0  0
    2.5080   -4.4690   -3.2600 H   0  0
  1  2  2  0
  1  3  2  0
  1  4  1  0
  1  5  1  0
  4  6  1  0
  6  7  2  0
  6  8  1  0
  7  9  1  0
  7 10  1  0
  8 11  2  0
  9 12  1  0
  9 13  2  0
 12 14  1  0
 12 15  1  0
 14 16  1  0
 15 17  1  0
 16 18  2  0
 16 19  1  0
 17 20  2  0
 17 21  1  0
 18 22  1  0
 19 23  2  0
 20 24  1  0
 21 25  2  0
 22 26  2  0
 22 27  1  0
 24 28  2  0
 11 13  1  0
 23 26  1  0
 25 28  1  0
  4 29  1  0
  5 30  1  0
  5 31  1  0
  5 32  1  0
  8 33  1  0
 10 34  1  0
 10 35  1  0
 10 36  1  0
 11 37  1  0
 13 38  1  0
 14 39  1  0
 14 40  1  0
 15 41  1  0
 15 42  1  0
 18 43  1  0
 19 44  1  0
 20 45  1  0
 21 46  1  0
 23 47  1  0
 24 48  1  0
 25 49  1  0
 26 50  1  0
 27 51  1  0
 27 52  1  0
 27 53  1  0
 28 54  1  0
M  END
> <Name>
CHEMBL305417

> <IC50 nM>
110

> <Molecule_ChEMBL_ID>
CHEMBL305417

> <Smiles>
Cc1cccc(CN(Cc2ccccc2)c2cccc(NS(C)(=O)=O)c2C)c1

$$$$
CHEMBL419633
  SciTegic08162514323D

 51 53  0  0  0  0            999 V2000
   -4.3280   -2.1460   -2.0450 S   0  0
   -4.8240   -2.6310   -0.7700 O   0  0
   -5.0040   -0.9470   -2.5060 O   0  0
   -2.7620   -1.7790   -1.8520 N   0  0
   -4.5350   -3.4320   -3.2710 C   0  0
   -2.3850   -0.8590   -0.9040 C   0  0
   -1.0190   -0.6130   -0.6190 C   0  0
   -3.3850   -0.1520   -0.2090 C   0  0
   -0.6720    0.3420    0.3630 C   0  0
    0.0490   -1.3610   -1.3550 C   0  0
   -3.0330    0.7930    0.7660 C   0  0
    0.6410    0.6080    0.6660 N   0  0
   -1.6820    1.0410    1.0510 C   0  0
    1.1840    0.3110    2.0000 C   0  0
    1.5240    1.1990   -0.3480 C   0  0
    1.9750   -0.9490    2.0000 C   0  0
    1.5590    2.6820   -0.2480 C   0  0
    1.3170   -2.1910    2.0000 C   0  0
    3.3790   -0.8980    2.0000 C   0  0
    2.4940    3.3090    0.5920 C   0  0
    0.6520    3.4570   -0.9940 C   0  0
    2.0630   -3.3830    2.0000 C   0  0
    4.1250   -2.0900    2.0000 C   0  0
    2.5260    4.7110    0.6860 C   0  0
    0.6860    4.8600   -0.9000 C   0  0
    3.4670   -3.3320    2.0000 C   0  0
    1.6210    5.4860   -0.0610 C   0  0
   -2.0700   -2.2230   -2.4200 H   0  0
   -5.5720   -3.7130   -3.4550 H   0  0
   -4.0000   -4.3260   -2.9530 H   0  0
   -4.1050   -3.1050   -4.2170 H   0  0
   -4.4320   -0.3280   -0.4120 H   0  0
   -0.2280   -2.4140   -1.4260 H   0  0
    0.2070   -0.9000   -2.3300 H   0  0
    0.9830   -1.2990   -0.7990 H   0  0
   -3.8050    1.3340    1.2950 H   0  0
   -1.4350    1.7750    1.8050 H   0  0
    0.3630    0.2250    2.7110 H   0  0
    1.8190    1.1370    2.3200 H   0  0
    1.1760    0.9080   -1.3400 H   0  0
    2.5310    0.8030   -0.2210 H   0  0
    0.2360   -2.2380    2.0000 H   0  0
    3.8910    0.0530    2.0000 H   0  0
    3.1940    2.7190    1.1680 H   0  0
   -0.0700    2.9830   -1.6410 H   0  0
    1.5570   -4.3380    2.0000 H   0  0
    5.2050   -2.0510    2.0000 H   0  0
    3.2460    5.1940    1.3320 H   0  0
   -0.0100    5.4550   -1.4730 H   0  0
    4.0410   -4.2480    2.0000 H   0  0
    1.6470    6.5650    0.0120 H   0  0
  1  2  2  0
  1  3  2  0
  1  4  1  0
  1  5  1  0
  4  6  1  0
  6  7  2  0
  6  8  1  0
  7  9  1  0
  7 10  1  0
  8 11  2  0
  9 12  1  0
  9 13  2  0
 12 14  1  0
 12 15  1  0
 14 16  1  0
 15 17  1  0
 16 18  2  0
 16 19  1  0
 17 20  2  0
 17 21  1  0
 18 22  1  0
 19 23  2  0
 20 24  1  0
 21 25  2  0
 22 26  2  0
 24 27  2  0
 11 13  1  0
 23 26  1  0
 25 27  1  0
  4 28  1  0
  5 29  1  0
  5 30  1  0
  5 31  1  0
  8 32  1  0
 10 33  1  0
 10 34  1  0
 10 35  1  0
 11 36  1  0
 13 37  1  0
 14 38  1  0
 14 39  1  0
 15 40  1  0
 15 41  1  0
 18 42  1  0
 19 43  1  0
 20 44  1  0
 21 45  1  0
 22 46  1  0
 23 47  1  0
 24 48  1  0
 25 49  1  0
 26 50  1  0
 27 51  1  0
M  END
> <Name>
CHEMBL419633

> <IC50 nM>
28

> <Molecule_ChEMBL_ID>
CHEMBL419633

> <Smiles>
Cc1c(NS(C)(=O)=O)cccc1N(Cc1ccccc1)Cc1ccccc1

$$$$
CHEMBL524378
  SciTegic08162514323D

104109  0  0  1  0            999 V2000
   -3.9980    2.2700   -0.2420 S   0  0
   -3.8590    0.6230    0.0590 C   0  0
   -2.6780   -0.0630    0.0100 N   0  0
   -4.9120   -0.1840    0.3790 N   0  0
   -1.4390    0.6540   -0.3240 C   0  0
   -6.2620    0.3930    0.4750 C   0  0
   -0.2400   -0.2930   -0.3240 C   0  0
   -7.2890   -0.6760    0.8440 C   0  0
    1.2890    0.5940   -0.7340 S   0  0
   -8.6390   -0.0980    0.9400 N   0  0
    2.4490   -0.7990   -0.6410 C   0  0
   -9.6920   -0.9060    1.2620 C   0  0
    3.8400   -0.3160   -0.9510 C   0  0
   -9.5180   -2.0840    1.4650 O   0  0
  -11.0310   -0.3380    1.3570 C   0  0
    4.0680    0.8590   -1.1110 O   0  0
    4.9430   -1.3440   -1.0590 C   0  0  1  0  0  0
  -12.1660   -1.0290    1.6680 N   0  0
  -11.3460    1.0080    1.1430 C   0  0
    4.8400   -1.9340   -2.3460 O   0  0
    6.3650   -0.7790   -0.8260 C   0  0  1  0  0  0
    4.8850   -2.4360    0.0390 C   0  0  2  0  0  0
  -13.1960   -0.1390    1.6540 C   0  0
  -12.2680   -2.4670    1.9650 C   0  0
  -12.7190    1.1330    1.3320 C   0  0
    7.1910   -2.0660   -0.6970 C   0  0  2  0  0  0
    7.0040    0.0590   -1.9490 C   0  0
    6.3320   -0.0040    0.5040 C   0  0
    6.3260   -2.9410    0.2130 C   0  0
    3.8950   -3.5740   -0.2110 C   0  0
  -13.5140    2.3650    1.2130 N   0  0
    8.6290   -1.7830   -0.2280 C   0  0  2  0  0  0
    8.4880    0.3930   -1.6480 C   0  0  2  0  0  0
  -12.9030    3.5430    0.8890 C   0  0
    9.3520   -0.8520   -1.2440 C   0  0  2  0  0  0
    9.4010   -3.1070   -0.0370 C   0  0
    8.5350    1.4040   -0.6580 O   0  0
  -11.7090    3.5780    0.6950 O   0  0
  -13.6970    4.7580    0.7730 C   0  0
    9.4850   -1.5680   -2.4180 F   0  0
   10.8090   -0.5310   -0.7480 C   0  0  1  0  0  0
   10.8480   -2.8630    0.4140 C   0  0
  -13.2370    5.9900    0.4610 N   0  0
  -15.0740    4.8500    0.9690 C   0  0
   11.5630   -1.8260   -0.4280 C   0  0
   11.5450    0.3570   -1.7460 C   0  0
   10.8030    0.2400    0.5780 C   0  0
  -14.3210    6.8160    0.4670 C   0  0
  -11.8460    6.3730    0.1700 C   0  0
  -15.4530    6.1310    0.7770 N   0  0
   12.8240   -2.0490   -0.8570 C   0  0
   12.8010    0.1070   -2.1580 C   0  0
   13.5330   -1.0720   -1.6890 C   0  0
   14.6960   -1.2340   -1.9820 O   0  0
   -2.6600   -1.0450    0.1990 H   0  0
   -4.7600   -1.1580    0.5470 H   0  0
   -1.5530    1.1330   -1.2970 H   0  0
   -1.2910    1.4630    0.3930 H   0  0
   -6.5180    0.8630   -0.4750 H   0  0
   -6.2560    1.1950    1.2150 H   0  0
   -0.1310   -0.7770    0.6470 H   0  0
   -0.3910   -1.1060   -1.0350 H   0  0
   -7.0330   -1.1470    1.7930 H   0  0
   -7.2950   -1.4770    0.1060 H   0  0
   -8.7830    0.8770    0.7720 H   0  0
    2.4220   -1.2310    0.3590 H   0  0
    2.1540   -1.5660   -1.3590 H   0  0
  -10.6540    1.7990    0.8810 H   0  0
    3.9300   -2.2520   -2.4410 H   0  0
    4.5980   -1.9710    0.9710 H   0  0
  -14.2190   -0.4160    1.8670 H   0  0
  -11.3190   -3.0040    1.9240 H   0  0
  -12.9470   -2.9380    1.2560 H   0  0
  -12.6840   -2.6040    2.9650 H   0  0
    7.2440   -2.5550   -1.6620 H   0  0
    6.9630   -0.4960   -2.8870 H   0  0
    6.4280    0.9730   -2.1130 H   0  0
    7.3340    0.2070    0.8750 H   0  0
    5.8070   -0.5760    1.2700 H   0  0
    5.8130    0.9450    0.3830 H   0  0
    6.4430   -3.9860   -0.0470 H   0  0
    6.6350   -2.8380    1.2420 H   0  0
    3.9840   -4.3400    0.5610 H   0  0
    2.8710   -3.1990   -0.2210 H   0  0
    4.0860   -4.0470   -1.1740 H   0  0
  -14.5000    2.3360    1.3710 H   0  0
    8.5900   -1.2810    0.7400 H   0  0
    8.9060    0.8520   -2.5450 H   0  0
    9.4020   -3.6840   -0.9650 H   0  0
    8.9020   -3.7320    0.7050 H   0  0
    8.9670    2.1760   -1.0590 H   0  0
   11.3930   -3.8090    0.4080 H   0  0
   10.8440   -2.5230    1.4510 H   0  0
  -15.7620    4.0570    1.2310 H   0  0
   11.0470    1.2290   -2.1460 H   0  0
   11.7600    0.1680    1.0940 H   0  0
   10.0350   -0.1470    1.2480 H   0  0
   10.5940    1.2970    0.4080 H   0  0
  -14.2870    7.8770    0.2540 H   0  0
  -11.1350    5.5490    0.2210 H   0  0
  -11.5240    7.1370    0.8790 H   0  0
  -11.7870    6.8010   -0.8300 H   0  0
   13.3300   -2.9630   -0.5860 H   0  0
   13.2740    0.7930   -2.8480 H   0  0
  1  2  2  0
  2  3  1  0
  2  4  1  0
  3  5  1  0
  4  6  1  0
  5  7  1  0
  6  8  1  0
  7  9  1  0
  8 10  1  0
  9 11  1  0
 10 12  1  0
 11 13  1  0
 12 14  2  0
 12 15  1  0
 13 16  2  0
 13 17  1  0
 15 18  1  0
 15 19  2  0
 17 20  1  0
 17 21  1  0
 17 22  1  0
 18 23  1  0
 18 24  1  0
 19 25  1  0
 21 26  1  0
 21 27  1  0
 21 28  1  0
 22 29  1  0
 22 30  1  0
 25 31  1  0
 26 32  1  0
 27 33  1  0
 31 34  1  0
 32 35  1  0
 32 36  1  0
 33 37  1  0
 34 38  2  0
 34 39  1  0
 35 40  1  0
 35 41  1  0
 36 42  1  0
 39 43  1  0
 39 44  2  0
 41 45  1  0
 41 46  1  0
 41 47  1  0
 43 48  1  0
 43 49  1  0
 44 50  1  0
 45 51  2  0
 46 52  2  0
 51 53  1  0
 53 54  2  0
 23 25  2  0
 26 29  1  0
 33 35  1  0
 42 45  1  0
 48 50  2  0
 52 53  1  0
  3 55  1  0
  4 56  1  0
  5 57  1  0
  5 58  1  0
  6 59  1  0
  6 60  1  0
  7 61  1  0
  7 62  1  0
  8 63  1  0
  8 64  1  0
 10 65  1  0
 11 66  1  0
 11 67  1  0
 19 68  1  0
 20 69  1  0
 22 70  1  0
 23 71  1  0
 24 72  1  0
 24 73  1  0
 24 74  1  0
 26 75  1  0
 27 76  1  0
 27 77  1  0
 28 78  1  0
 28 79  1  0
 28 80  1  0
 29 81  1  0
 29 82  1  0
 30 83  1  0
 30 84  1  0
 30 85  1  0
 31 86  1  0
 32 87  1  0
 33 88  1  0
 36 89  1  0
 36 90  1  0
 37 91  1  0
 42 92  1  0
 42 93  1  0
 44 94  1  0
 46 95  1  0
 47 96  1  0
 47 97  1  0
 47 98  1  0
 48 99  1  0
 49100  1  0
 49101  1  0
 49102  1  0
 51103  1  0
 52104  1  0
M  END
> <Name>
CHEMBL524378

> <IC50 nM>
5.7

> <Molecule_ChEMBL_ID>
CHEMBL524378

> <Smiles>
C[C@H]1C[C@@H]2[C@H]3CCC4=CC(=O)C=C[C@@]4(C)[C@]3(F)[C@H](O)C[C@@]2(C)[C@]1(O)C(=O)CSCCNC(=S)NCCNC(=O)c1cc(NC(=O)c2cncn2C)cn1C

$$$$
CHEMBL2022859
  SciTegic08162514323D

 80 87  0  0  1  0            999 V2000
    8.5430   -1.1840    1.0410 S   0  0
    7.2560   -1.4690    2.1840 C   0  0
    9.5590   -1.6020    2.2760 C   0  0
    5.5680   -1.4020    2.2130 S   0  0
    7.6920   -1.8750    3.4630 N   0  0
    9.0570   -1.9510    3.5060 C   0  0
   10.9650   -1.6110    2.0860 C   0  0
    5.1800   -0.8930    0.5840 C   0  0
    9.8850   -2.3180    4.5940 C   0  0
   11.8300   -1.9730    3.1510 C   0  0
    3.7440   -1.2360    0.2810 C   0  0
   11.2870   -2.3260    4.4080 C   0  0
    3.4400   -2.3360   -0.1170 O   0  0
    2.6990   -0.1660    0.4860 C   0  0  2  0  0  0
    2.4980   -0.0570    1.8870 O   0  0
    1.3520   -0.4300   -0.2230 C   0  0  2  0  0  0
    3.1090    1.2170   -0.0800 C   0  0
    0.7380    0.9860   -0.1440 C   0  0  1  0  0  0
    0.3810   -1.4880    0.3540 C   0  0
    1.6840   -0.8030   -1.6820 C   0  0
    1.8570    1.8570   -0.7030 C   0  0
   -0.6520    0.9200   -0.7810 C   0  0  1  0  0  0
   -0.8420   -0.8630    1.0610 C   0  0  1  0  0  0
   -1.6170    0.2170    0.2170 C   0  0  2  0  0  0
   -1.2190    2.2770   -1.1800 C   0  0
   -1.6460   -1.9080    1.5610 O   0  0
   -2.9770   -0.1350   -0.4920 C   0  0  2  0  0  0
   -2.5270    2.0620   -1.9410 C   0  0
   -3.4980    1.1050   -1.2690 C   0  0
   -4.0230   -0.6990    0.5410 C   0  0
   -2.7250   -1.2150   -1.5530 C   0  0
   -4.8180    1.3710   -1.4020 C   0  0
   -5.4840   -0.4860    0.1700 C   0  0
   -5.7990    0.5100   -0.7300 C   0  0
   -6.5660   -1.2050    0.6780 C   0  0
   -7.1540    0.4340   -0.7750 N   0  0
   -7.5820   -0.5660    0.0390 N   0  0
   -7.9690    1.2280   -1.5180 C   0  0
   -9.1370    1.7710   -0.9470 C   0  0
   -7.6470    1.5120   -2.8590 C   0  0
   -9.9790    2.5920   -1.7170 C   0  0
   -8.4900    2.3340   -3.6250 C   0  0
   -9.6560    2.8750   -3.0550 C   0  0
   11.3810   -1.3400    1.1270 H   0  0
    5.3280    0.1840    0.4940 H   0  0
    5.8380   -1.3970   -0.1230 H   0  0
    9.4590   -2.5860    5.5510 H   0  0
   12.8990   -1.9770    3.0000 H   0  0
   11.9420   -2.6040    5.2230 H   0  0
    3.3170    0.3030    2.2660 H   0  0
    3.5330    1.8610    0.6800 H   0  0
    3.8670    1.1170   -0.8440 H   0  0
    0.6020    1.3070    0.8810 H   0  0
    0.9180   -2.1540    1.0270 H   0  0
    0.0100   -2.1270   -0.4510 H   0  0
    2.4450   -0.1470   -2.1050 H   0  0
    0.7950   -0.7310   -2.3090 H   0  0
    2.0530   -1.8260   -1.7420 H   0  0
    1.7420    2.8950   -0.4220 H   0  0
    1.8890    1.8090   -1.7810 H   0  0
   -0.5820    0.3300   -1.6950 H   0  0
   -0.4610   -0.3690    1.9550 H   0  0
   -1.8910    0.9710    0.9590 H   0  0
   -1.3870    2.8930   -0.2950 H   0  0
   -0.5140    2.8180   -1.8100 H   0  0
   -1.0900   -2.4430    2.1470 H   0  0
   -2.2990    1.6700   -2.9340 H   0  0
   -2.9980    3.0330   -2.1030 H   0  0
   -3.8960   -1.7720    0.6840 H   0  0
   -3.8750   -0.2310    1.5160 H   0  0
   -3.6680   -1.5820   -1.9590 H   0  0
   -2.1150   -0.8220   -2.3650 H   0  0
   -2.1970   -2.0650   -1.1190 H   0  0
   -5.1560    2.2070   -1.9980 H   0  0
   -6.6270   -2.0290    1.3750 H   0  0
   -9.4020    1.5660    0.0800 H   0  0
   -6.7560    1.1050   -3.3160 H   0  0
  -10.8730    3.0080   -1.2790 H   0  0
   -8.2440    2.5510   -4.6540 H   0  0
  -10.3030    3.5060   -3.6460 H   0  0
  1  2  1  0
  1  3  1  0
  2  4  1  0
  2  5  2  0
  3  6  1  0
  3  7  2  0
  4  8  1  0
  6  9  2  0
  7 10  1  0
  8 11  1  0
  9 12  1  0
 11 13  2  0
 11 14  1  0
 14 15  1  0
 14 16  1  0
 14 17  1  0
 16 18  1  0
 16 19  1  0
 16 20  1  0
 17 21  1  0
 18 22  1  0
 19 23  1  0
 24 22  1  0
 22 25  1  0
 23 26  1  0
 24 27  1  0
 25 28  1  0
 27 29  1  0
 27 30  1  0
 27 31  1  0
 29 32  2  0
 30 33  1  0
 32 34  1  0
 33 35  1  0
 34 36  1  0
 35 37  2  0
 36 38  1  0
 38 39  2  0
 38 40  1  0
 39 41  1  0
 40 42  2  0
 41 43  2  0
  5  6  1  0
 10 12  2  0
 18 21  1  0
 23 24  1  0
 28 29  1  0
 33 34  2  0
 36 37  1  0
 42 43  1  0
  7 44  1  0
  8 45  1  0
  8 46  1  0
  9 47  1  0
 10 48  1  0
 12 49  1  0
 15 50  1  0
 17 51  1  0
 17 52  1  0
 18 53  1  0
 19 54  1  0
 19 55  1  0
 20 56  1  0
 20 57  1  0
 20 58  1  0
 21 59  1  0
 21 60  1  0
 22 61  1  0
 23 62  1  0
 24 63  1  0
 25 64  1  0
 25 65  1  0
 26 66  1  0
 28 67  1  0
 28 68  1  0
 30 69  1  0
 30 70  1  0
 31 71  1  0
 31 72  1  0
 31 73  1  0
 32 74  1  0
 35 75  1  0
 39 76  1  0
 40 77  1  0
 41 78  1  0
 42 79  1  0
 43 80  1  0
M  END
> <Name>
CHEMBL2022859

> <IC50 nM>
7.5

> <Molecule_ChEMBL_ID>
CHEMBL2022859

> <Smiles>
C[C@]12Cc3cnn(-c4ccccc4)c3C=C1CC[C@@H]1[C@@H]2[C@@H](O)C[C@@]2(C)[C@H]1CC[C@]2(O)C(=O)CSc1nc2ccccc2s1

$$$$
CHEMBL2023235
  SciTegic08162514323D

 84 91  0  0  1  0            999 V2000
    8.5920    0.3960    1.3530 S   0  0
    7.7660   -0.2680   -0.0310 C   0  0
    9.7010    0.9550    0.2620 C   0  0
    6.3670   -1.1600   -0.3460 S   0  0
    8.4010   -0.0160   -1.2660 N   0  0
    9.5470    0.7090   -1.0820 C   0  0
   10.8300    1.6990    0.6910 C   0  0
    5.6990   -1.4000    1.2540 C   0  0
   10.4670    1.1660   -2.0550 C   0  0
   11.7780    2.1760   -0.2500 C   0  0
    4.2520   -1.7950    1.1390 C   0  0
   11.5940    1.9060   -1.6290 C   0  0
    3.9360   -2.9340    0.8870 O   0  0
    3.2050   -0.7250    1.3460 C   0  0  2  0  0  0
    3.0060   -0.6170    2.7460 O   0  0
    1.8570   -0.9900    0.6390 C   0  0  2  0  0  0
    3.6130    0.6600    0.7810 C   0  0
    1.2440    0.4260    0.7210 C   0  0  1  0  0  0
    0.8890   -2.0510    1.2150 C   0  0
    2.1880   -1.3610   -0.8200 C   0  0
    2.3610    1.2970    0.1580 C   0  0
   -0.1480    0.3570    0.0840 C   0  0  1  0  0  0
   -0.3340   -1.4280    1.9240 C   0  0  1  0  0  0
   -1.1110   -0.3460    1.0820 C   0  0  2  0  0  0
   -0.7150    1.7130   -0.3160 C   0  0
   -1.1390   -2.4750    2.4220 O   0  0
   -2.4710   -0.6970    0.3750 C   0  0  2  0  0  0
   -2.0230    1.4980   -1.0780 C   0  0
   -2.9940    0.5410   -0.4040 C   0  0
   -3.5160   -1.2660    1.4080 C   0  0
   -2.2170   -1.7790   -0.6860 C   0  0
   -4.3130    0.8050   -0.5350 C   0  0
   -4.9750   -1.0550    1.0370 C   0  0
   -5.2890   -0.0590    0.1370 C   0  0
   -6.0590   -1.7700    1.5450 C   0  0
   -6.6430   -0.1310    0.0920 N   0  0
   -7.0760   -1.1310    0.9060 N   0  0
   -7.5140    0.7360   -0.7170 C   0  0
   -8.9550    0.7600   -0.1720 C   0  0
   -7.5160    0.3180   -2.1990 C   0  0
   -9.9670    1.4340   -1.1290 C   0  0
   -8.5900    1.0450   -3.0450 C   0  0
   -9.3220    1.9840   -2.2700 O   0  0
   10.9730    1.9040    1.7420 H   0  0
    6.2580   -2.1840    1.7660 H   0  0
    5.7890   -0.4770    1.8260 H   0  0
   10.3190    0.9550   -3.1040 H   0  0
   12.6350    2.7400    0.0820 H   0  0
   12.3130    2.2680   -2.3500 H   0  0
    3.8320   -0.2770    3.1270 H   0  0
    4.0390    1.3030    1.5410 H   0  0
    4.3710    0.5600    0.0160 H   0  0
    1.1070    0.7440    1.7460 H   0  0
    1.4280   -2.7150    1.8910 H   0  0
    0.5180   -2.6900    0.4100 H   0  0
    2.8990   -0.6660   -1.2660 H   0  0
    1.2870   -1.3560   -1.4320 H   0  0
    2.6210   -2.3590   -0.8730 H   0  0
    2.2460    2.3340    0.4370 H   0  0
    2.3910    1.2460   -0.9200 H   0  0
   -0.0780   -0.2320   -0.8300 H   0  0
    0.0470   -0.9340    2.8180 H   0  0
   -1.3830    0.4080    1.8260 H   0  0
   -0.8850    2.3300    0.5680 H   0  0
   -0.0100    2.2560   -0.9470 H   0  0
   -0.6020   -2.9690    3.0590 H   0  0
   -1.7950    1.1050   -2.0700 H   0  0
   -2.4940    2.4690   -1.2400 H   0  0
   -3.3890   -2.3380    1.5490 H   0  0
   -3.3690   -0.7990    2.3830 H   0  0
   -3.1580   -2.1390   -1.1020 H   0  0
   -1.5960   -1.3910   -1.4920 H   0  0
   -1.6990   -2.6330   -0.2480 H   0  0
   -4.6560    1.6390   -1.1330 H   0  0
   -6.1250   -2.5940    2.2420 H   0  0
   -7.1130    1.7500   -0.6540 H   0  0
   -8.9730    1.2680    0.7950 H   0  0
   -9.2990   -0.2580    0.0210 H   0  0
   -7.6900   -0.7580   -2.2810 H   0  0
   -6.5290    0.4920   -2.6330 H   0  0
  -10.7150    0.7170   -1.4710 H   0  0
  -10.5000    2.2400   -0.6250 H   0  0
   -9.2930    0.3300   -3.4730 H   0  0
   -8.1310    1.5820   -3.8730 H   0  0
  1  2  1  0
  1  3  1  0
  2  4  1  0
  2  5  2  0
  3  6  1  0
  3  7  2  0
  4  8  1  0
  6  9  2  0
  7 10  1  0
  8 11  1  0
  9 12  1  0
 11 13  2  0
 11 14  1  0
 14 15  1  0
 14 16  1  0
 14 17  1  0
 16 18  1  0
 16 19  1  0
 16 20  1  0
 17 21  1  0
 18 22  1  0
 19 23  1  0
 24 22  1  0
 22 25  1  0
 23 26  1  0
 24 27  1  0
 25 28  1  0
 27 29  1  0
 27 30  1  0
 27 31  1  0
 29 32  2  0
 30 33  1  0
 32 34  1  0
 33 35  1  0
 34 36  1  0
 35 37  2  0
 36 38  1  0
 38 39  1  0
 38 40  1  0
 39 41  1  0
 40 42  1  0
 41 43  1  0
  5  6  1  0
 10 12  2  0
 18 21  1  0
 23 24  1  0
 28 29  1  0
 33 34  2  0
 36 37  1  0
 42 43  1  0
  7 44  1  0
  8 45  1  0
  8 46  1  0
  9 47  1  0
 10 48  1  0
 12 49  1  0
 15 50  1  0
 17 51  1  0
 17 52  1  0
 18 53  1  0
 19 54  1  0
 19 55  1  0
 20 56  1  0
 20 57  1  0
 20 58  1  0
 21 59  1  0
 21 60  1  0
 22 61  1  0
 23 62  1  0
 24 63  1  0
 25 64  1  0
 25 65  1  0
 26 66  1  0
 28 67  1  0
 28 68  1  0
 30 69  1  0
 30 70  1  0
 31 71  1  0
 31 72  1  0
 31 73  1  0
 32 74  1  0
 35 75  1  0
 38 76  1  0
 39 77  1  0
 39 78  1  0
 40 79  1  0
 40 80  1  0
 41 81  1  0
 41 82  1  0
 42 83  1  0
 42 84  1  0
M  END
> <Name>
CHEMBL2023235

> <IC50 nM>
86.4

> <Molecule_ChEMBL_ID>
CHEMBL2023235

> <Smiles>
C[C@]12Cc3cnn(C4CCOCC4)c3C=C1CC[C@@H]1[C@@H]2[C@@H](O)C[C@@]2(C)[C@H]1CC[C@]2(O)C(=O)CSc1nc2ccccc2s1

$$$$
CHEMBL2023243
  SciTegic08162514323D

 84 91  0  0  1  0            999 V2000
    6.1580    0.9920   -1.3220 S   0  0
    7.5260    0.2540   -0.6580 C   0  0
    4.8790   -0.1210   -0.8950 C   0  0
    7.5330   -1.1500   -0.5450 C   0  0
    8.5940    1.0760   -0.2480 C   0  0
    3.5630    0.6090   -0.8710 C   0  0
    8.6860   -1.7620    0.0120 C   0  0
    9.7400    0.4590    0.3090 C   0  0
    3.5200    1.8030   -0.6760 O   0  0
    2.3010   -0.1890   -1.0960 C   0  0  2  0  0  0
    9.7910   -0.9570    0.4410 C   0  0
    8.7460   -3.1720    0.1440 C   0  0
    2.1090   -0.2560   -2.5000 O   0  0
    1.0390    0.3870   -0.4160 C   0  0  2  0  0  0
    2.3650   -1.6250   -0.5200 C   0  0
   10.9380   -1.5780    1.0000 C   0  0
    9.8950   -3.7790    0.7010 C   0  0
    0.1150   -0.8480   -0.5040 C   0  0  1  0  0  0
    0.3520    1.6390   -1.0120 C   0  0
    1.4200    0.6820    1.0490 C   0  0
    0.9880   -1.9510    0.0800 C   0  0
   10.9850   -2.9860    1.1290 C   0  0
   -1.2360   -0.4530    0.1020 C   0  0  1  0  0  0
   -0.9650    1.3110   -1.7480 C   0  0  1  0  0  0
   -1.9880    0.4430   -0.9220 C   0  0  2  0  0  0
   -2.1090   -1.6390    0.4920 C   0  0
   -1.4940    2.5120   -2.2640 O   0  0
   -3.2480    1.1040   -0.2540 C   0  0  2  0  0  0
   -3.3500   -1.1190    1.2210 C   0  0
   -4.0610    0.0250    0.5180 C   0  0
   -4.1130    1.8810   -1.3180 C   0  0
   -2.7830    2.1110    0.8070 C   0  0
   -5.4080    0.0700    0.6150 C   0  0
   -5.5920    2.0120   -0.9860 C   0  0
   -6.1470    1.1250   -0.0880 C   0  0
   -6.4670    2.9510   -1.5270 C   0  0
   -7.4510    1.5080   -0.0800 N   0  0
   -7.6190    2.5700   -0.9140 N   0  0
   -8.4430    0.9300    0.6440 C   0  0
   -8.2330    0.6060    1.9980 C   0  0
   -9.6880    0.6540    0.0450 C   0  0
   -9.2600    0.0080    2.7480 C   0  0
  -10.7150    0.0570    0.7970 C   0  0
  -10.5000   -0.2680    2.1480 C   0  0
  -11.4730   -0.8340    2.8570 F   0  0
    4.8400   -0.9280   -1.6270 H   0  0
    5.0820   -0.5510    0.0860 H   0  0
    6.6860   -1.7320   -0.8770 H   0  0
    8.5450    2.1500   -0.3560 H   0  0
   10.5670    1.0760    0.6290 H   0  0
    7.9240   -3.7970   -0.1760 H   0  0
    2.8320   -0.7910   -2.8630 H   0  0
    3.1110   -1.6990    0.2600 H   0  0
    2.6450   -2.3530   -1.2680 H   0  0
   11.7830   -0.9900    1.3340 H   0  0
    9.9400   -4.8540    0.8010 H   0  0
   -0.0700   -1.1350   -1.5310 H   0  0
    1.0450    2.1600   -1.6740 H   0  0
    0.1210    2.3500   -0.2170 H   0  0
    1.9530   -0.1520    1.5060 H   0  0
    0.5290    0.8770    1.6460 H   0  0
    2.0630    1.5630    1.1090 H   0  0
    1.0100   -1.9040    1.1600 H   0  0
    0.6410   -2.9360   -0.1990 H   0  0
   11.8580   -3.4570    1.5550 H   0  0
   -1.0510    0.1130    1.0140 H   0  0
   -0.6890    0.7380   -2.6350 H   0  0
   -2.4080   -0.2340   -1.6700 H   0  0
   -2.3960   -2.2070   -0.3930 H   0  0
   -1.5640   -2.3220    1.1430 H   0  0
   -0.8400    2.8690   -2.8850 H   0  0
   -3.0610   -0.7770    2.2150 H   0  0
   -4.0350   -1.9550    1.3790 H   0  0
   -4.0510    1.3790   -2.2850 H   0  0
   -3.7400    2.8950   -1.4610 H   0  0
   -3.6270    2.6860    1.1870 H   0  0
   -2.2970    1.6000    1.6390 H   0  0
   -2.0660    2.8130    0.3830 H   0  0
   -5.9430   -0.6580    1.2090 H   0  0
   -6.3220    3.7580   -2.2330 H   0  0
   -7.2830    0.8090    2.4790 H   0  0
   -9.8710    0.8970   -0.9920 H   0  0
   -9.0920   -0.2400    3.7850 H   0  0
  -11.6660   -0.1520    0.3320 H   0  0
  1  2  1  0
  1  3  1  0
  2  4  2  0
  2  5  1  0
  3  6  1  0
  4  7  1  0
  5  8  2  0
  6  9  2  0
  6 10  1  0
  7 11  1  0
  7 12  2  0
 10 13  1  0
 10 14  1  0
 10 15  1  0
 11 16  2  0
 12 17  1  0
 14 18  1  0
 14 19  1  0
 14 20  1  0
 15 21  1  0
 16 22  1  0
 18 23  1  0
 19 24  1  0
 25 23  1  0
 23 26  1  0
 24 27  1  0
 25 28  1  0
 26 29  1  0
 28 30  1  0
 28 31  1  0
 28 32  1  0
 30 33  2  0
 31 34  1  0
 33 35  1  0
 34 36  1  0
 35 37  1  0
 36 38  2  0
 37 39  1  0
 39 40  2  0
 39 41  1  0
 40 42  1  0
 41 43  2  0
 42 44  2  0
 44 45  1  0
  8 11  1  0
 17 22  2  0
 18 21  1  0
 24 25  1  0
 29 30  1  0
 34 35  2  0
 37 38  1  0
 43 44  1  0
  3 46  1  0
  3 47  1  0
  4 48  1  0
  5 49  1  0
  8 50  1  0
 12 51  1  0
 13 52  1  0
 15 53  1  0
 15 54  1  0
 16 55  1  0
 17 56  1  0
 18 57  1  0
 19 58  1  0
 19 59  1  0
 20 60  1  0
 20 61  1  0
 20 62  1  0
 21 63  1  0
 21 64  1  0
 22 65  1  0
 23 66  1  0
 24 67  1  0
 25 68  1  0
 26 69  1  0
 26 70  1  0
 27 71  1  0
 29 72  1  0
 29 73  1  0
 31 74  1  0
 31 75  1  0
 32 76  1  0
 32 77  1  0
 32 78  1  0
 33 79  1  0
 36 80  1  0
 40 81  1  0
 41 82  1  0
 42 83  1  0
 43 84  1  0
M  END
> <Name>
CHEMBL2023243

> <IC50 nM>
0.72

> <Molecule_ChEMBL_ID>
CHEMBL2023243

> <Smiles>
C[C@]12Cc3cnn(-c4ccc(F)cc4)c3C=C1CC[C@@H]1[C@@H]2[C@@H](O)C[C@@]2(C)[C@H]1CC[C@]2(O)C(=O)CSc1ccc2ccccc2c1

$$$$
CHEMBL2024021
  SciTegic08162514323D

 68 73  0  0  1  0            999 V2000
   -5.3280   -1.0020   -1.7050 S   0  0
   -5.2680   -2.2910   -0.6170 C   0  0
   -4.3770    0.2250   -0.8950 C   0  0
   -4.6950   -2.5980    0.6190 O   0  0
   -6.0220   -3.3400   -1.1390 N   0  0
   -2.9140   -0.0530   -1.1090 C   0  0
   -5.1310   -3.8520    0.8070 C   0  0
   -5.9160   -4.3130   -0.2190 C   0  0
   -2.5290   -1.1540   -1.4240 O   0  0
   -1.9400    1.0860   -0.9160 C   0  0  2  0  0  0
   -4.8260   -4.6410    1.9400 C   0  0
   -6.4610   -5.6190   -0.1840 C   0  0
   -1.9550    1.8500   -2.1110 O   0  0
   -0.4980    0.6500   -0.5570 C   0  0  2  0  0  0
   -2.2990    2.0140    0.2620 C   0  0
   -5.3600   -5.9550    1.9960 C   0  0
   -6.1760   -6.4430    0.9380 C   0  0
    0.1090    1.9750   -0.0780 C   0  0  1  0  0  0
    0.3980    0.1210   -1.6930 C   0  0
   -0.5940   -0.3540    0.6040 C   0  0
   -0.9770    2.5250    0.8480 C   0  0
    1.5140    1.8030    0.5250 C   0  0  1  0  0  0
    1.8710   -0.0510   -1.2500 C   0  0  1  0  0  0
    2.4570    1.2150   -0.5550 C   0  0  2  0  0  0
    2.0160    3.1840    0.9750 C   0  0
    1.9730   -1.1930   -0.4220 O   0  0
    3.9350    1.0860   -0.0530 C   0  0  2  0  0  0
    3.4490    3.1270    1.5060 C   0  0
    4.4040    2.3950    0.5860 C   0  0
    4.8400    0.6890   -1.2480 C   0  0
    4.0680    0.0370    1.0610 C   0  0
    5.6410    2.8960    0.3690 C   0  0
    6.3380    0.8280   -0.9570 C   0  0
    6.6580    2.2070   -0.4410 C   0  0
    7.7170    2.7380   -0.6820 O   0  0
   -4.6310    1.2050   -1.2990 H   0  0
   -4.6060    0.2170    0.1700 H   0  0
   -4.2070   -4.2600    2.7360 H   0  0
   -7.0820   -5.9840   -0.9900 H   0  0
   -2.8420    2.2380   -2.1910 H   0  0
   -2.8280    1.4670    1.0310 H   0  0
   -2.9490    2.8280   -0.0270 H   0  0
   -5.1470   -6.5880    2.8440 H   0  0
   -6.5800   -7.4440    0.9860 H   0  0
    0.1950    2.6500   -0.9200 H   0  0
   -0.0020   -0.8140   -2.0860 H   0  0
    0.3850    0.8200   -2.5290 H   0  0
   -1.3520   -0.0630    1.3320 H   0  0
    0.3590   -0.4300    1.1290 H   0  0
   -0.8520   -1.3480    0.2340 H   0  0
   -0.9490    3.6040    0.8950 H   0  0
   -0.8460    2.1520    1.8540 H   0  0
    1.4750    1.1350    1.3870 H   0  0
    2.4610   -0.2790   -2.1390 H   0  0
    2.4840    1.9670   -1.3460 H   0  0
    1.3650    3.5920    1.7480 H   0  0
    1.9730    3.8810    0.1390 H   0  0
    1.7930   -1.9670   -0.9770 H   0  0
    3.7970    4.1450    1.6930 H   0  0
    3.4530    2.6230    2.4730 H   0  0
    4.6350   -0.3340   -1.5610 H   0  0
    4.6020    1.3180   -2.1090 H   0  0
    4.9900    0.1870    1.6230 H   0  0
    3.2230    0.0940    1.7460 H   0  0
    4.0920   -0.9690    0.6430 H   0  0
    5.9080    3.8460    0.8110 H   0  0
    6.6500    0.0880   -0.2190 H   0  0
    6.9140    0.6310   -1.8610 H   0  0
  1  2  1  0
  1  3  1  0
  2  4  1  0
  2  5  2  0
  3  6  1  0
  4  7  1  0
  5  8  1  0
  6  9  2  0
  6 10  1  0
  7 11  1  0
  8 12  1  0
 10 13  1  0
 10 14  1  0
 10 15  1  0
 11 16  2  0
 12 17  2  0
 14 18  1  0
 14 19  1  0
 14 20  1  0
 15 21  1  0
 18 22  1  0
 19 23  1  0
 24 22  1  0
 22 25  1  0
 23 26  1  0
 24 27  1  0
 25 28  1  0
 27 29  1  0
 27 30  1  0
 27 31  1  0
 29 32  2  0
 30 33  1  0
 32 34  1  0
 34 35  2  0
  7  8  2  0
 16 17  1  0
 18 21  1  0
 23 24  1  0
 28 29  1  0
 33 34  1  0
  3 36  1  0
  3 37  1  0
 11 38  1  0
 12 39  1  0
 13 40  1  0
 15 41  1  0
 15 42  1  0
 16 43  1  0
 17 44  1  0
 18 45  1  0
 19 46  1  0
 19 47  1  0
 20 48  1  0
 20 49  1  0
 20 50  1  0
 21 51  1  0
 21 52  1  0
 22 53  1  0
 23 54  1  0
 24 55  1  0
 25 56  1  0
 25 57  1  0
 26 58  1  0
 28 59  1  0
 28 60  1  0
 30 61  1  0
 30 62  1  0
 31 63  1  0
 31 64  1  0
 31 65  1  0
 32 66  1  0
 33 67  1  0
 33 68  1  0
M  END
> <Name>
CHEMBL2024021

> <IC50 nM>
26.7

> <Molecule_ChEMBL_ID>
CHEMBL2024021

> <Smiles>
C[C@]12CCC(=O)C=C1CC[C@@H]1[C@@H]2[C@@H](O)C[C@@]2(C)[C@H]1CC[C@]2(O)C(=O)CSc1nc2ccccc2o1

$$$$
CHEMBL2022651
  SciTegic08162514323D

 68 73  0  0  1  0            999 V2000
    5.7760    1.4360   -0.5350 O   0  0
    5.8240    0.2560   -0.7970 C   0  0
    4.5610   -0.5430   -1.0230 C   0  0  2  0  0  0
    7.1430   -0.4590   -0.9080 C   0  0
    4.3690   -0.6090   -2.4260 O   0  0
    3.2990    0.0330   -0.3420 C   0  0  2  0  0  0
    4.6270   -1.9790   -0.4450 C   0  0
    7.6410   -0.7290    0.3830 O   0  0
    2.3750   -1.2010   -0.4300 C   0  0  1  0  0  0
    2.6110    1.2850   -0.9390 C   0  0
    3.6800    0.3280    1.1230 C   0  0
    3.2480   -2.3050    0.1540 C   0  0
    1.0240   -0.8070    0.1740 C   0  0  1  0  0  0
    1.2950    0.9570   -1.6740 C   0  0  1  0  0  0
    0.2720    0.0900   -0.8500 C   0  0  2  0  0  0
    0.1500   -1.9920    0.5660 C   0  0
    0.7660    2.1580   -2.1910 O   0  0
   -0.9880    0.7500   -0.1800 C   0  0  2  0  0  0
   -1.0900   -1.4730    1.2950 C   0  0
   -1.7990   -0.3280    0.5920 C   0  0
   -1.8530    1.5270   -1.2440 C   0  0
   -0.5230    1.7580    0.8810 C   0  0
   -3.1480   -0.2830    0.6900 C   0  0
   -3.3320    1.6580   -0.9120 C   0  0
   -3.8870    0.7710   -0.0140 C   0  0
   -4.2070    2.5960   -1.4550 C   0  0
   -5.1910    1.1540   -0.0080 N   0  0
   -5.3590    2.2170   -0.8400 N   0  0
   -6.1840    0.5760    0.7190 C   0  0
   -5.9750    0.2620    2.0760 C   0  0
   -7.4240    0.2910    0.1150 C   0  0
   -7.0040   -0.3360    2.8240 C   0  0
   -8.4490   -0.3070    0.8670 C   0  0
   -8.2400   -0.6210    2.2210 C   0  0
    7.8650    0.1740   -1.4260 H   0  0
    7.0080   -1.4080   -1.4260 H   0  0
    5.1080   -1.1190   -2.7930 H   0  0
    5.3710   -2.0530    0.3340 H   0  0
    4.9040   -2.7090   -1.1930 H   0  0
    8.4880   -1.1880    0.2720 H   0  0
    2.1900   -1.4880   -1.4570 H   0  0
    3.3070    1.8070   -1.6000 H   0  0
    2.3810    1.9960   -0.1430 H   0  0
    4.2170   -0.5040    1.5780 H   0  0
    2.7890    0.5200    1.7210 H   0  0
    4.3180    1.2110    1.1840 H   0  0
    3.2700   -2.2580    1.2320 H   0  0
    2.9000   -3.2890   -0.1270 H   0  0
    1.2090   -0.2400    1.0880 H   0  0
    1.5700    0.3830   -2.5610 H   0  0
   -0.1480   -0.5880   -1.5960 H   0  0
   -0.1370   -2.5610   -0.3180 H   0  0
    0.6950   -2.6760    1.2170 H   0  0
    1.3970    2.4880   -2.8500 H   0  0
   -0.8010   -1.1310    2.2890 H   0  0
   -1.7730   -2.3090    1.4510 H   0  0
   -1.7910    1.0250   -2.2110 H   0  0
   -1.4800    2.5410   -1.3870 H   0  0
   -1.3690    2.3200    1.2750 H   0  0
   -0.0210    1.2460    1.7030 H   0  0
    0.1820    2.4710    0.4510 H   0  0
   -3.6840   -1.0120    1.2810 H   0  0
   -4.0630    3.4040   -2.1600 H   0  0
   -5.0310    0.4730    2.5570 H   0  0
   -7.6060    0.5250   -0.9240 H   0  0
   -6.8420   -0.5780    3.8650 H   0  0
   -9.4000   -0.5250    0.4040 H   0  0
   -9.0290   -1.0800    2.7970 H   0  0
  1  2  2  0
  2  3  1  0
  2  4  1  0
  3  5  1  0
  3  6  1  0
  3  7  1  0
  4  8  1  0
  6  9  1  0
  6 10  1  0
  6 11  1  0
  7 12  1  0
  9 13  1  0
 10 14  1  0
 15 13  1  0
 13 16  1  0
 14 17  1  0
 15 18  1  0
 16 19  1  0
 18 20  1  0
 18 21  1  0
 18 22  1  0
 20 23  2  0
 21 24  1  0
 23 25  1  0
 24 26  1  0
 25 27  1  0
 26 28  2  0
 27 29  1  0
 29 30  2  0
 29 31  1  0
 30 32  1  0
 31 33  2  0
 32 34  2  0
  9 12  1  0
 14 15  1  0
 19 20  1  0
 24 25  2  0
 27 28  1  0
 33 34  1  0
  4 35  1  0
  4 36  1  0
  5 37  1  0
  7 38  1  0
  7 39  1  0
  8 40  1  0
  9 41  1  0
 10 42  1  0
 10 43  1  0
 11 44  1  0
 11 45  1  0
 11 46  1  0
 12 47  1  0
 12 48  1  0
 13 49  1  0
 14 50  1  0
 15 51  1  0
 16 52  1  0
 16 53  1  0
 17 54  1  0
 19 55  1  0
 19 56  1  0
 21 57  1  0
 21 58  1  0
 22 59  1  0
 22 60  1  0
 22 61  1  0
 23 62  1  0
 26 63  1  0
 30 64  1  0
 31 65  1  0
 32 66  1  0
 33 67  1  0
 34 68  1  0
M  END
> <Name>
CHEMBL2022651

> <IC50 nM>
0.63

> <Molecule_ChEMBL_ID>
CHEMBL2022651

> <Smiles>
C[C@]12Cc3cnn(-c4ccccc4)c3C=C1CC[C@@H]1[C@@H]2[C@@H](O)C[C@@]2(C)[C@H]1CC[C@]2(O)C(=O)CO

$$$$
CHEMBL2022655
  SciTegic08162514323D

 86 93  0  0  1  0            999 V2000
    6.7580   -1.3750    0.5040 S   0  0
    8.0470   -0.3110    0.7460 C   0  0
    6.2230   -0.9630   -1.1110 C   0  0
    9.3970   -0.3570    1.1010 O   0  0
    7.5940    0.9860    0.5160 N   0  0
    4.9040   -0.2400   -1.0330 C   0  0
    9.7210    0.9430    1.0760 C   0  0
    8.6720    1.7580    0.7320 C   0  0
    4.8580    0.9430   -0.7950 O   0  0
    3.6430   -1.0390   -1.2620 C   0  0  2  0  0  0
   11.0060    1.4510    1.3690 C   0  0
    8.8380    3.1600    0.6540 C   0  0
    3.4510   -1.1050   -2.6660 O   0  0
    2.3790   -0.4610   -0.5820 C   0  0  2  0  0  0
    3.7050   -2.4750   -0.6840 C   0  0
   11.1970    2.8560    1.3010 C   0  0
   10.1170    3.7090    0.9430 C   0  0
    1.4550   -1.6950   -0.6740 C   0  0  1  0  0  0
    1.6950    0.7910   -1.1800 C   0  0
    2.7580   -0.1660    0.8830 C   0  0
    2.3260   -2.7990   -0.0880 C   0  0
    0.1040   -1.3010   -0.0700 C   0  0  1  0  0  0
    0.3790    0.4670   -1.9180 C   0  0  1  0  0  0
   -0.6480   -0.4020   -1.0940 C   0  0  2  0  0  0
   -0.7710   -2.4820    0.3240 C   0  0
   -0.1500    1.6680   -2.4320 O   0  0
   -1.9060    0.2580   -0.4240 C   0  0  2  0  0  0
   -2.0100   -1.9630    1.0530 C   0  0
   -2.7190   -0.8180    0.3480 C   0  0
   -2.7700    1.0370   -1.4900 C   0  0
   -1.4390    1.2660    0.6370 C   0  0
   -4.0660   -0.7710    0.4450 C   0  0
   -4.2480    1.1680   -1.1580 C   0  0
   -4.8030    0.2810   -0.2620 C   0  0
   -5.1250    2.1060   -1.6990 C   0  0
   -6.1040    0.6620   -0.2520 N   0  0
   -6.2770    1.7250   -1.0840 N   0  0
   -7.1700    0.0270    0.5370 C   0  0
   -8.2810   -0.5160   -0.3830 C   0  0
   -7.7380    1.0140    1.5780 C   0  0
   -9.4300   -1.1370    0.4240 C   0  0
   -8.8910    0.3890    2.3790 C   0  0
   -9.9920   -0.1500    1.4550 C   0  0
    6.9670   -0.3260   -1.5900 H   0  0
    6.1110   -1.8730   -1.6990 H   0  0
   11.8210    0.7930    1.6370 H   0  0
    8.0160    3.8050    0.3830 H   0  0
    4.1930   -1.6130   -3.0290 H   0  0
    4.4490   -2.5510    0.0960 H   0  0
    3.9830   -3.2050   -1.4340 H   0  0
   12.1660    3.2790    1.5190 H   0  0
   10.2700    4.7750    0.8930 H   0  0
    1.2700   -1.9800   -1.7010 H   0  0
    2.3890    1.3110   -1.8440 H   0  0
    1.4650    1.5040   -0.3850 H   0  0
    3.2850   -1.0040    1.3420 H   0  0
    1.8670    0.0330    1.4780 H   0  0
    3.4040    0.7090    0.9450 H   0  0
    2.3460   -2.7500    0.9920 H   0  0
    1.9790   -3.7830   -0.3650 H   0  0
    0.2890   -0.7320    0.8420 H   0  0
    0.6540   -0.1070   -2.8050 H   0  0
   -1.0660   -1.0800   -1.8420 H   0  0
   -1.0590   -3.0530   -0.5610 H   0  0
   -0.2250   -3.1660    0.9750 H   0  0
    0.4880    2.0080   -3.0800 H   0  0
   -1.7190   -1.6190    2.0470 H   0  0
   -2.6950   -2.7970    1.2110 H   0  0
   -2.7070    0.5370   -2.4570 H   0  0
   -2.3980    2.0530   -1.6330 H   0  0
   -2.2850    1.8320    1.0290 H   0  0
   -0.9390    0.7560    1.4590 H   0  0
   -0.7340    1.9770    0.2070 H   0  0
   -4.6050   -1.4980    1.0370 H   0  0
   -4.9840    2.9140   -2.4040 H   0  0
   -6.7270   -0.8140    1.0700 H   0  0
   -8.6800    0.2890   -1.0040 H   0  0
   -7.8750   -1.2620   -1.0680 H   0  0
   -6.9530    1.3340    2.2660 H   0  0
   -8.1020    1.9140    1.0820 H   0  0
   -9.0700   -2.0290    0.9370 H   0  0
  -10.2230   -1.4650   -0.2480 H   0  0
   -8.5040   -0.4260    2.9920 H   0  0
   -9.3090    1.1230    3.0660 H   0  0
  -10.7720   -0.6330    2.0470 H   0  0
  -10.4690    0.6840    0.9370 H   0  0
  1  2  1  0
  1  3  1  0
  2  4  1  0
  2  5  2  0
  3  6  1  0
  4  7  1  0
  5  8  1  0
  6  9  2  0
  6 10  1  0
  7 11  1  0
  8 12  1  0
 10 13  1  0
 10 14  1  0
 10 15  1  0
 11 16  2  0
 12 17  2  0
 14 18  1  0
 14 19  1  0
 14 20  1  0
 15 21  1  0
 18 22  1  0
 19 23  1  0
 24 22  1  0
 22 25  1  0
 23 26  1  0
 24 27  1  0
 25 28  1  0
 27 29  1  0
 27 30  1  0
 27 31  1  0
 29 32  2  0
 30 33  1  0
 32 34  1  0
 33 35  1  0
 34 36  1  0
 35 37  2  0
 36 38  1  0
 38 39  1  0
 38 40  1  0
 39 41  1  0
 40 42  1  0
 41 43  1  0
  7  8  2  0
 16 17  1  0
 18 21  1  0
 23 24  1  0
 28 29  1  0
 33 34  2  0
 36 37  1  0
 42 43  1  0
  3 44  1  0
  3 45  1  0
 11 46  1  0
 12 47  1  0
 13 48  1  0
 15 49  1  0
 15 50  1  0
 16 51  1  0
 17 52  1  0
 18 53  1  0
 19 54  1  0
 19 55  1  0
 20 56  1  0
 20 57  1  0
 20 58  1  0
 21 59  1  0
 21 60  1  0
 22 61  1  0
 23 62  1  0
 24 63  1  0
 25 64  1  0
 25 65  1  0
 26 66  1  0
 28 67  1  0
 28 68  1  0
 30 69  1  0
 30 70  1  0
 31 71  1  0
 31 72  1  0
 31 73  1  0
 32 74  1  0
 35 75  1  0
 38 76  1  0
 39 77  1  0
 39 78  1  0
 40 79  1  0
 40 80  1  0
 41 81  1  0
 41 82  1  0
 42 83  1  0
 42 84  1  0
 43 85  1  0
 43 86  1  0
M  END
> <Name>
CHEMBL2022655

> <IC50 nM>
3.12

> <Molecule_ChEMBL_ID>
CHEMBL2022655

> <Smiles>
C[C@]12Cc3cnn(C4CCCCC4)c3C=C1CC[C@@H]1[C@@H]2[C@@H](O)C[C@@]2(C)[C@H]1CC[C@]2(O)C(=O)CSc1nc2ccccc2o1

$$$$
CHEMBL2024028
  SciTegic08162514323D

 65 69  0  0  1  0            999 V2000
   -5.1080   -2.1000   -1.1470 S   0  0
   -6.6990   -1.5900   -0.9040 C   0  0
   -4.1800   -0.7010   -0.6480 C   0  0
   -6.8670   -0.3220   -0.4240 N   0  0
   -7.8190   -2.4020   -1.1760 C   0  0
   -2.7110   -0.9920   -0.8050 C   0  0
   -8.1210    0.1720   -0.1990 C   0  0
   -9.1150   -1.9080   -0.9510 C   0  0
   -2.3220   -2.1050   -1.0740 O   0  0
   -1.7360    0.1470   -0.6110 C   0  0  2  0  0  0
   -9.2660   -0.6030   -0.4550 C   0  0
   -1.7520    0.9080   -1.8070 O   0  0
   -0.2950   -0.2890   -0.2520 C   0  0  2  0  0  0
   -2.0960    1.0720    0.5660 C   0  0
    0.3120    1.0350    0.2270 C   0  0  1  0  0  0
    0.6020   -0.8200   -1.3890 C   0  0
   -0.3910   -1.2950    0.9080 C   0  0
   -0.7740    1.5840    1.1520 C   0  0
    1.7170    0.8610    0.8300 C   0  0  1  0  0  0
    2.0740   -0.9920   -0.9450 C   0  0  1  0  0  0
    2.6600    0.2750   -0.2500 C   0  0  2  0  0  0
    2.2190    2.2420    1.2790 C   0  0
    2.1780   -2.1330   -0.1170 O   0  0
    4.1390    0.1470    0.2520 C   0  0  2  0  0  0
    3.6520    2.1880    1.8110 C   0  0
    4.6070    1.4530    0.8890 C   0  0
    5.0430   -0.2500   -0.9450 C   0  0
    4.2710   -0.9020    1.3650 C   0  0
    5.8440    1.9570    0.6720 C   0  0
    6.5430   -0.1130   -0.6520 C   0  0
    6.8610    1.2680   -0.1370 C   0  0
    7.9200    1.7970   -0.3770 O   0  0
   -4.4530    0.1540   -1.2660 H   0  0
   -4.4020   -0.4670    0.3910 H   0  0
   -7.6820   -3.4040   -1.5550 H   0  0
   -8.2350    1.1760    0.1800 H   0  0
   -9.9810   -2.5230   -1.1540 H   0  0
  -10.2520   -0.1990   -0.2730 H   0  0
   -2.6370    1.3010   -1.8850 H   0  0
   -2.6250    0.5250    1.3360 H   0  0
   -2.7460    1.8870    0.2750 H   0  0
    0.3980    1.7110   -0.6150 H   0  0
    0.2010   -1.7560   -1.7810 H   0  0
    0.5880   -0.1210   -2.2250 H   0  0
   -1.1520   -1.0060    1.6330 H   0  0
    0.5600   -1.3650    1.4360 H   0  0
   -0.6430   -2.2890    0.5390 H   0  0
   -0.7440    2.6640    1.1990 H   0  0
   -0.6410    1.2130    2.1580 H   0  0
    1.6780    0.1930    1.6910 H   0  0
    2.6640   -1.2190   -1.8340 H   0  0
    2.6870    1.0270   -1.0410 H   0  0
    1.5680    2.6500    2.0530 H   0  0
    2.1760    2.9410    0.4410 H   0  0
    1.9880   -2.9060   -0.6700 H   0  0
    4.0000    3.2030    1.9980 H   0  0
    3.6560    1.6840    2.7770 H   0  0
    4.8380   -1.2750   -1.2560 H   0  0
    4.8050    0.3790   -1.8050 H   0  0
    5.1910   -0.7520    1.9300 H   0  0
    3.4240   -0.8480    2.0490 H   0  0
    4.2970   -1.9080    0.9470 H   0  0
    6.1110    2.9040    1.1150 H   0  0
    6.8540   -0.8520    0.0860 H   0  0
    7.1170   -0.3110   -1.5590 H   0  0
  1  2  1  0
  1  3  1  0
  2  4  2  0
  2  5  1  0
  3  6  1  0
  4  7  1  0
  5  8  2  0
  6  9  2  0
  6 10  1  0
  7 11  2  0
 10 12  1  0
 10 13  1  0
 10 14  1  0
 13 15  1  0
 13 16  1  0
 13 17  1  0
 14 18  1  0
 15 19  1  0
 16 20  1  0
 21 19  1  0
 19 22  1  0
 20 23  1  0
 21 24  1  0
 22 25  1  0
 24 26  1  0
 24 27  1  0
 24 28  1  0
 26 29  2  0
 27 30  1  0
 29 31  1  0
 31 32  2  0
  8 11  1  0
 15 18  1  0
 20 21  1  0
 25 26  1  0
 30 31  1  0
  3 33  1  0
  3 34  1  0
  5 35  1  0
  7 36  1  0
  8 37  1  0
 11 38  1  0
 12 39  1  0
 14 40  1  0
 14 41  1  0
 15 42  1  0
 16 43  1  0
 16 44  1  0
 17 45  1  0
 17 46  1  0
 17 47  1  0
 18 48  1  0
 18 49  1  0
 19 50  1  0
 20 51  1  0
 21 52  1  0
 22 53  1  0
 22 54  1  0
 23 55  1  0
 25 56  1  0
 25 57  1  0
 27 58  1  0
 27 59  1  0
 28 60  1  0
 28 61  1  0
 28 62  1  0
 29 63  1  0
 30 64  1  0
 30 65  1  0
M  END
> <Name>
CHEMBL2024028

> <IC50 nM>
14.9

> <Molecule_ChEMBL_ID>
CHEMBL2024028

> <Smiles>
C[C@]12CCC(=O)C=C1CC[C@@H]1[C@@H]2[C@@H](O)C[C@@]2(C)[C@H]1CC[C@]2(O)C(=O)CSc1ccccn1

$$$$
CHEMBL1940546
  SciTegic08162514323D

 70 75  0  0  1  0            999 V2000
    4.0260    0.3100   -1.9180 S   0  0
    5.5720   -0.1000   -1.3770 C   0  0
    2.9900   -0.4610   -0.7360 C   0  0
    5.7640   -0.8650   -0.2540 N   0  0
    6.7030    0.3120   -2.0330 N   0  0
    1.5510   -0.1900   -1.0780 C   0  0
    7.1120   -0.9360   -0.2090 C   0  0
    7.6760   -0.2320   -1.2740 C   0  0
    6.8220    1.1350   -3.2500 C   0  0
    1.2520    0.4140   -2.0840 O   0  0
    0.4880   -0.6910   -0.1290 C   0  0  2  0  0  0
    7.9300   -1.6000    0.7380 C   0  0
    9.0800   -0.1640   -1.4340 C   0  0
    0.3520   -2.0840   -0.3650 O   0  0
   -0.8790    0.0230   -0.2520 C   0  0  2  0  0  0
    0.8400   -0.4790    1.3570 C   0  0
    9.3380   -1.5390    0.5880 C   0  0
    9.9120   -0.8240   -0.4940 C   0  0
   -1.5680   -0.4220    1.0450 C   0  0  1  0  0  0
   -1.7910   -0.3710   -1.4280 C   0  0
   -0.6110    1.5370   -0.2320 C   0  0
   -0.4760   -0.2010    2.0920 C   0  0
   -2.9120    0.2930    1.2730 C   0  0  1  0  0  0
   -3.2150    0.2210   -1.2970 C   0  0  1  0  0  0
   -3.8650   -0.0530    0.0940 C   0  0  2  0  0  0
   -3.4940   -0.1740    2.6210 C   0  0
   -3.1720    1.6050   -1.5820 O   0  0
   -5.2910    0.5530    0.3090 C   0  0  2  0  0  0
   -4.9000    0.3830    2.8630 C   0  0
   -5.8010    0.1030    1.6800 C   0  0
   -6.2290    0.1580   -0.8280 C   0  0
   -5.2620    2.0860    0.3400 C   0  0
   -6.9860   -0.5180    1.8520 C   0  0
   -7.4020   -0.4710   -0.6330 C   0  0
   -7.8590   -0.8260    0.7130 C   0  0
   -8.9300   -1.3610    0.8830 O   0  0
    3.2170   -0.0680    0.2540 H   0  0
    3.1760   -1.5350   -0.7380 H   0  0
    5.8260    1.3930   -3.6110 H   0  0
    7.4340    2.0120   -3.0370 H   0  0
    7.3220    0.5600   -4.0290 H   0  0
    7.4940   -2.1450    1.5620 H   0  0
    9.5180    0.3790   -2.2580 H   0  0
    1.1920   -2.5000   -0.1170 H   0  0
    1.3650   -1.3200    1.7870 H   0  0
    1.4920    0.3750    1.4780 H   0  0
    9.9770   -2.0410    1.3010 H   0  0
   10.9870   -0.7830   -0.6060 H   0  0
   -1.7680   -1.4840    0.9980 H   0  0
   -1.3340   -0.0820   -2.3750 H   0  0
   -1.8890   -1.4550   -1.4670 H   0  0
    0.1760    1.8030    0.4750 H   0  0
   -1.5100    2.0860    0.0490 H   0  0
   -0.3030    1.8870   -1.2190 H   0  0
   -0.6070   -0.8520    2.9450 H   0  0
   -0.4960    0.8160    2.4570 H   0  0
   -2.7560    1.3710    1.3140 H   0  0
   -3.8280   -0.2250   -2.0800 H   0  0
   -3.9960   -1.1350    0.1270 H   0  0
   -2.8420    0.1250    3.4410 H   0  0
   -3.5370   -1.2640    2.6430 H   0  0
   -3.8930    1.7930   -2.2030 H   0  0
   -4.8500    1.4590    3.0270 H   0  0
   -5.3120   -0.0490    3.7770 H   0  0
   -5.9490    0.3930   -1.8460 H   0  0
   -6.1410    2.5000    0.8340 H   0  0
   -5.2250    2.4920   -0.6720 H   0  0
   -4.3810    2.4430    0.8730 H   0  0
   -7.3070   -0.8030    2.8440 H   0  0
   -8.0200   -0.7170   -1.4860 H   0  0
  1  2  1  0
  1  3  1  0
  2  4  2  0
  2  5  1  0
  3  6  1  0
  4  7  1  0
  5  8  1  0
  5  9  1  0
  6 10  2  0
  6 11  1  0
  7 12  1  0
  8 13  1  0
 11 14  1  0
 11 15  1  0
 11 16  1  0
 12 17  2  0
 13 18  2  0
 15 19  1  0
 15 20  1  0
 15 21  1  0
 16 22  1  0
 19 23  1  0
 20 24  1  0
 25 23  1  0
 23 26  1  0
 24 27  1  0
 25 28  1  0
 26 29  1  0
 28 30  1  0
 28 31  1  0
 28 32  1  0
 30 33  2  0
 31 34  2  0
 33 35  1  0
 35 36  2  0
  7  8  2  0
 17 18  1  0
 19 22  1  0
 24 25  1  0
 29 30  1  0
 34 35  1  0
  3 37  1  0
  3 38  1  0
  9 39  1  0
  9 40  1  0
  9 41  1  0
 12 42  1  0
 13 43  1  0
 14 44  1  0
 16 45  1  0
 16 46  1  0
 17 47  1  0
 18 48  1  0
 19 49  1  0
 20 50  1  0
 20 51  1  0
 21 52  1  0
 21 53  1  0
 21 54  1  0
 22 55  1  0
 22 56  1  0
 23 57  1  0
 24 58  1  0
 25 59  1  0
 26 60  1  0
 26 61  1  0
 27 62  1  0
 29 63  1  0
 29 64  1  0
 31 65  1  0
 32 66  1  0
 32 67  1  0
 32 68  1  0
 33 69  1  0
 34 70  1  0
M  END
> <Name>
CHEMBL1940546

> <IC50 nM>
7.3

> <Molecule_ChEMBL_ID>
CHEMBL1940546

> <Smiles>
Cn1c(SCC(=O)[C@@]2(O)CC[C@H]3[C@@H]4CCC5=CC(=O)C=C[C@]5(C)[C@H]4[C@@H](O)C[C@@]32C)nc2ccccc21

$$$$
CHEMBL1917413
  SciTegic08162514323D

 77 82  0  0  1  0            999 V2000
    3.3130    3.4410    0.9980 S   0  0
    4.5240    2.8180   -0.0250 C   0  0
    3.7560    5.0350    0.6860 C   0  0
    5.1150    1.3340   -0.5680 S   0  0
    5.2560    3.8300   -0.5980 N   0  0
    4.8340    5.0760   -0.2050 C   0  0
    3.0310    6.1990    1.3260 C   0  0
    3.9940    0.1930    0.1410 C   0  0
    5.5180    6.3220   -0.7270 C   0  0
    2.8750   -0.0780   -0.8280 C   0  0
    2.8670    0.4260   -1.9260 O   0  0
    1.7620   -0.9980   -0.3850 C   0  0  2  0  0  0
    1.4830   -1.8670   -1.4770 O   0  0
    0.4670   -0.2810    0.0550 C   0  0  2  0  0  0
    2.1170   -1.8540    0.8420 C   0  0
    2.5450   -2.5800   -1.8400 C   0  0
   -0.2500   -1.4430    0.7560 C   0  0  1  0  0  0
   -0.4340    0.2360   -1.0820 C   0  0
    0.8260    0.8320    1.0510 C   0  0
    0.8400   -1.9840    1.6760 C   0  0
    3.6510   -2.4280   -1.3710 O   0  0
    2.3180   -3.5880   -2.8630 C   0  0
   -1.5900   -1.0250    1.3990 C   0  0  1  0  0  0
   -1.8550    0.6000   -0.5900 C   0  0  1  0  0  0
    1.0610   -3.7130   -3.3690 O   0  0
    3.2330   -4.4820   -3.4280 C   0  0
   -2.5100   -0.5410    0.2420 C   0  0  2  0  0  0
   -2.1890   -2.2380    2.1310 C   0  0
   -1.7950    1.8030    0.1540 O   0  0
    1.1840   -4.7210   -4.2830 C   0  0
    2.4920   -5.2170   -4.3520 C   0  0
   -3.9920   -0.2850    0.6740 C   0  0  2  0  0  0
   -3.6190   -1.9750    2.6080 C   0  0
   -4.4960   -1.4840    1.4770 C   0  0
   -4.8440   -0.0430   -0.6020 C   0  0
   -4.1150    0.9260    1.6090 C   0  0
   -5.6700   -2.1000    1.2090 C   0  0
   -6.3480   -0.2540   -0.3960 C   0  0
   -6.5980   -1.6230    0.1760 C   0  0
   -7.5250   -2.3050   -0.1970 O   0  0
    2.2210    5.9100    1.9940 H   0  0
    2.6090    6.8380    0.5490 H   0  0
    3.7380    6.7970    1.9000 H   0  0
    3.5940    0.6050    1.0660 H   0  0
    4.5180   -0.7340    0.3710 H   0  0
    6.2700    6.0410   -1.4650 H   0  0
    4.7700    7.0060   -1.1290 H   0  0
    6.0280    6.8280    0.0920 H   0  0
    2.4860   -2.8240    0.5410 H   0  0
    2.8910   -1.3930    1.4360 H   0  0
   -0.4670   -2.2150    0.0250 H   0  0
    0.0350    1.0880   -1.5780 H   0  0
   -0.5310   -0.5330   -1.8500 H   0  0
    1.5700    0.5040    1.7750 H   0  0
   -0.0570    1.1540    1.6020 H   0  0
    1.2290    1.6990    0.5290 H   0  0
    0.6470   -3.0060    1.9650 H   0  0
    0.9080   -1.3950    2.5800 H   0  0
   -1.4350   -0.2150    2.1150 H   0  0
   -2.4670    0.8130   -1.4690 H   0  0
    4.2850   -4.5820   -3.1970 H   0  0
   -2.5680   -1.3910   -0.4430 H   0  0
   -1.5660   -2.5080    2.9830 H   0  0
   -2.2010   -3.1040    1.4670 H   0  0
   -2.1210    2.5120   -0.4220 H   0  0
    0.3580   -5.0820   -4.8810 H   0  0
    2.8540   -6.0120   -4.9920 H   0  0
   -3.6110   -1.2190    3.3950 H   0  0
   -4.0310   -2.8790    3.0570 H   0  0
   -4.5180   -0.7250   -1.3890 H   0  0
   -4.6680    0.9650   -0.9840 H   0  0
   -5.0640    0.9340    2.1430 H   0  0
   -4.0410    1.8570    1.0450 H   0  0
   -3.3160    0.9240    2.3520 H   0  0
   -5.9530   -2.9770    1.7740 H   0  0
   -6.7460    0.4940    0.2890 H   0  0
   -6.8790   -0.1430   -1.3440 H   0  0
  1  2  1  0
  1  3  1  0
  2  4  1  0
  2  5  2  0
  3  6  2  0
  3  7  1  0
  4  8  1  0
  6  9  1  0
  8 10  1  0
 10 11  2  0
 10 12  1  0
 12 13  1  0
 12 14  1  0
 12 15  1  0
 13 16  1  0
 14 17  1  0
 14 18  1  0
 14 19  1  0
 15 20  1  0
 16 21  2  0
 16 22  1  0
 17 23  1  0
 18 24  1  0
 22 25  1  0
 22 26  2  0
 27 23  1  0
 23 28  1  0
 24 29  1  0
 25 30  1  0
 26 31  1  0
 27 32  1  0
 28 33  1  0
 32 34  1  0
 32 35  1  0
 32 36  1  0
 34 37  2  0
 35 38  1  0
 37 39  1  0
 39 40  2  0
  5  6  1  0
 17 20  1  0
 24 27  1  0
 30 31  2  0
 33 34  1  0
 38 39  1  0
  7 41  1  0
  7 42  1  0
  7 43  1  0
  8 44  1  0
  8 45  1  0
  9 46  1  0
  9 47  1  0
  9 48  1  0
 15 49  1  0
 15 50  1  0
 17 51  1  0
 18 52  1  0
 18 53  1  0
 19 54  1  0
 19 55  1  0
 19 56  1  0
 20 57  1  0
 20 58  1  0
 23 59  1  0
 24 60  1  0
 26 61  1  0
 27 62  1  0
 28 63  1  0
 28 64  1  0
 29 65  1  0
 30 66  1  0
 31 67  1  0
 33 68  1  0
 33 69  1  0
 35 70  1  0
 35 71  1  0
 36 72  1  0
 36 73  1  0
 36 74  1  0
 37 75  1  0
 38 76  1  0
 38 77  1  0
M  END
> <Name>
CHEMBL1917413

> <IC50 nM>
0.9

> <Molecule_ChEMBL_ID>
CHEMBL1917413

> <Smiles>
Cc1nc(SCC(=O)[C@@]2(OC(=O)c3ccco3)CC[C@H]3[C@@H]4CCC5=CC(=O)CC[C@]5(C)[C@H]4[C@@H](O)C[C@@]32C)sc1C

$$$$
CHEMBL1254079
  SciTegic08162514323D

 50 52  0  0  1  0            999 V2000
   -3.5180   -1.9390   -4.6540 F   0  0
   -2.4300   -1.7680   -3.9060 C   0  0
   -2.4160   -0.7890   -2.8970 C   0  0
   -1.2930   -2.5640   -4.1270 C   0  0
   -1.2680   -0.6050   -2.1060 C   0  0
   -0.1450   -2.3850   -3.3380 C   0  0
   -0.1270   -1.4060   -2.3280 C   0  0
   -1.2700    0.4340   -1.0430 C   0  0
    1.0980   -1.2290   -1.5020 C   0  0
   -1.1000   -0.5700    0.0980 C   0  0
   -2.6070    1.1740   -0.9820 C   0  0
   -0.0780    1.3810   -1.1780 C   0  0
   -1.6450   -0.0510    1.4280 C   0  0  1  0  0  0
   -3.0330    0.1520    1.2870 O   0  0
   -1.4260   -1.1620    2.4550 C   0  0
   -1.0080    1.2750    1.8500 C   0  0
   -0.8140   -2.2290    1.8480 F   0  0
   -2.6350   -1.5590    2.9650 F   0  0
   -0.6310   -0.6970    3.4690 F   0  0
    0.5000    1.1620    1.9140 C   0  0
    1.3610    2.2870    1.9900 N   0  0
    1.2890   -0.0060    1.9120 C   0  0
    2.6520    1.7930    2.0350 C   0  0
    2.5660    0.4240    1.9840 C   0  0
    3.9280    2.3890    2.1150 C   0  0
    3.7400   -0.3830    2.0120 C   0  0
    5.1040    1.6680    2.1470 N   0  0
    5.0020    0.2810    2.0940 C   0  0
   -3.2910   -0.1780   -2.7310 H   0  0
   -1.2990   -3.3180   -4.9000 H   0  0
    0.7250   -3.0020   -3.5120 H   0  0
    1.9800   -1.3670   -2.1250 H   0  0
    1.0720   -0.2520   -1.0200 H   0  0
    1.1210   -1.9860   -0.7190 H   0  0
   -0.0570   -0.8650    0.1970 H   0  0
   -1.5590   -1.5250   -0.1580 H   0  0
   -2.7970    1.7420   -1.8930 H   0  0
   -2.6250    1.8710   -0.1450 H   0  0
   -3.4300    0.4730   -0.8500 H   0  0
   -0.3930    2.4220   -1.2600 H   0  0
    0.5080    1.1390   -2.0640 H   0  0
    0.5800    1.2990   -0.3130 H   0  0
   -3.2730    0.8980    1.8590 H   0  0
   -1.3910    1.5960    2.8180 H   0  0
   -1.2830    2.0700    1.1580 H   0  0
    1.0900    3.2420    2.0080 H   0  0
    0.9390   -1.0270    1.8610 H   0  0
    3.9900    3.4650    2.1540 H   0  0
    3.6860   -1.4610    1.9730 H   0  0
    5.9060   -0.3130    2.1170 H   0  0
  1  2  1  0
  2  3  2  0
  2  4  1  0
  3  5  1  0
  4  6  2  0
  5  7  2  0
  5  8  1  0
  7  9  1  0
  8 10  1  0
  8 11  1  0
  8 12  1  0
 10 13  1  0
 13 14  1  0
 13 15  1  0
 13 16  1  0
 15 17  1  0
 15 18  1  0
 15 19  1  0
 16 20  1  0
 20 21  1  0
 20 22  2  0
 21 23  1  0
 22 24  1  0
 23 25  1  0
 24 26  1  0
 25 27  2  0
 26 28  2  0
  6  7  1  0
 23 24  2  0
 27 28  1  0
  3 29  1  0
  4 30  1  0
  6 31  1  0
  9 32  1  0
  9 33  1  0
  9 34  1  0
 10 35  1  0
 10 36  1  0
 11 37  1  0
 11 38  1  0
 11 39  1  0
 12 40  1  0
 12 41  1  0
 12 42  1  0
 14 43  1  0
 16 44  1  0
 16 45  1  0
 21 46  1  0
 22 47  1  0
 25 48  1  0
 26 49  1  0
 28 50  1  0
M  END
> <Name>
CHEMBL1254079

> <IC50 nM>
10

> <Molecule_ChEMBL_ID>
CHEMBL1254079

> <Smiles>
Cc1ccc(F)cc1C(C)(C)CC(O)(Cc1cc2ccncc2[nH]1)C(F)(F)F

$$$$
CHEMBL379159
  SciTegic08162514323D

 65 68  0  0  1  0            999 V2000
    0.0870    3.0270    1.7040 F   0  0
    1.2130    2.3220    1.3640 C   0  0
    2.0450    3.1200    0.6220 F   0  0
    1.8620    1.9210    2.5040 F   0  0
    0.8180    1.0950    0.5430 C   0  0  3  0  0  0
    0.1420    0.1950    1.3920 O   0  0
   -0.1310    1.5990   -0.5110 C   0  0
    2.0250    0.3720   -0.0560 C   0  0
    0.2440    1.7990   -1.6420 O   0  0
   -1.4330    1.8280   -0.1650 N   0  0
    2.0360   -1.1310    0.2640 C   0  0  3  0  0  0
   -2.2880    2.3310   -1.0680 C   0  0
    1.6810   -1.3720    1.7000 C   0  0
    3.4520   -1.6670    0.0200 C   0  0
    1.0590   -1.8240   -0.7120 C   0  0
   -3.6090    1.8190   -1.1660 C   0  0
   -1.8790    3.3800   -1.9330 C   0  0
    0.7690   -2.4040    2.0890 C   0  0
    2.2750   -0.5640    2.7100 C   0  0
    3.9930   -0.9260    1.2430 C   0  0
    4.0570   -1.1620   -1.2910 C   0  0
    3.5410   -3.1860    0.1640 C   0  0
    0.7760   -3.2660   -0.2910 C   0  0
   -4.5080    2.3540   -2.1230 C   0  0
   -2.7760    3.9170   -2.8880 C   0  0
    0.4700   -2.5970    3.4630 C   0  0
    0.1110   -3.2880    1.0910 C   0  0
    1.9670   -0.7650    4.0730 C   0  0
   -4.0890    3.3970   -2.9760 C   0  0
   -5.9030    1.8430   -2.2600 C   0  0
    1.0640   -1.7820    4.4500 C   0  0
   -5.0800    3.9170   -3.9590 C   0  0
   -6.6970    2.3510   -3.1410 N   0  0
   -6.4180    0.7310   -1.3820 C   0  0
   -4.8110    4.8110   -4.7290 O   0  0
   -6.3390    3.4310   -4.0590 O   0  0
   -0.4340   -0.3490    0.8330 H   0  0
    2.9540    0.8420    0.2670 H   0  0
    2.0770    0.5380   -1.1320 H   0  0
   -1.7520    1.6210    0.7600 H   0  0
    1.4580   -1.8040   -1.7280 H   0  0
    0.1140   -1.2800   -0.7500 H   0  0
   -3.9310    1.0210   -0.5120 H   0  0
   -0.8770    3.7850   -1.8760 H   0  0
    2.9730    0.2160    2.4430 H   0  0
    3.6590   -1.3820    2.1750 H   0  0
    3.6590    0.1120    1.2430 H   0  0
    5.0830   -0.9260    1.2430 H   0  0
    3.4770   -1.4840   -2.1560 H   0  0
    5.0740   -1.5340   -1.4140 H   0  0
    4.0960   -0.0730   -1.3020 H   0  0
    3.2990   -3.6970   -0.7680 H   0  0
    2.8500   -3.5420    0.9280 H   0  0
    4.5460   -3.4870    0.4580 H   0  0
    1.7050   -3.8360   -0.2710 H   0  0
    0.1300   -3.7530   -1.0220 H   0  0
   -2.4520    4.7160   -3.5390 H   0  0
   -0.2190   -3.3730    3.7640 H   0  0
   -0.9270   -2.9680    0.9920 H   0  0
    0.0840   -4.3160    1.4580 H   0  0
    2.4230   -0.1410    4.8280 H   0  0
    0.8280   -1.9360    5.4930 H   0  0
   -7.4550    0.5100   -1.6340 H   0  0
   -5.7830   -0.1490   -1.4880 H   0  0
   -6.3870    1.0400   -0.3370 H   0  0
  1  2  1  0
  2  3  1  0
  2  4  1  0
  2  5  1  0
  5  6  1  0
  5  7  1  0
  5  8  1  0
  7  9  2  0
  7 10  1  0
  8 11  1  0
 10 12  1  0
 11 13  1  0
 11 14  1  0
 11 15  1  0
 12 16  2  0
 12 17  1  0
 13 18  2  0
 13 19  1  0
 14 20  1  0
 14 21  1  0
 14 22  1  0
 15 23  1  0
 16 24  1  0
 17 25  2  0
 18 26  1  0
 18 27  1  0
 19 28  2  0
 24 29  2  0
 24 30  1  0
 26 31  2  0
 29 32  1  0
 30 33  2  0
 30 34  1  0
 32 35  2  0
 32 36  1  0
 23 27  1  0
 25 29  1  0
 28 31  1  0
 33 36  1  0
  6 37  1  0
  8 38  1  0
  8 39  1  0
 10 40  1  0
 15 41  1  0
 15 42  1  0
 16 43  1  0
 17 44  1  0
 19 45  1  0
 20 46  1  0
 20 47  1  0
 20 48  1  0
 21 49  1  0
 21 50  1  0
 21 51  1  0
 22 52  1  0
 22 53  1  0
 22 54  1  0
 23 55  1  0
 23 56  1  0
 25 57  1  0
 26 58  1  0
 27 59  1  0
 27 60  1  0
 28 61  1  0
 31 62  1  0
 34 63  1  0
 34 64  1  0
 34 65  1  0
M  END
> <Name>
CHEMBL379159

> <IC50 nM>
11.48

> <Molecule_ChEMBL_ID>
CHEMBL379159

> <Smiles>
Cc1noc(=O)c2ccc(NC(=O)C(O)(CC3(C(C)(C)C)CCCc4ccccc43)C(F)(F)F)cc12

$$$$
CHEMBL193760
  SciTegic08162514323D

 64 68  0  0  1  0            999 V2000
   -5.0920    7.0470   -2.8540 F   0  0
   -4.7090    5.9320   -2.2340 C   0  0
   -3.6310    5.1840   -2.7340 C   0  0
   -5.3870    5.5040   -1.0780 C   0  0
   -3.2270    4.0080   -2.0800 C   0  0
   -4.9840    4.3260   -0.4240 C   0  0
   -3.9020    3.5760   -0.9240 C   0  0
   -3.5140    2.4380   -0.2910 N   0  0
   -4.3610    1.4810    0.1740 N   0  0
   -2.2300    2.0760   -0.0270 C   0  0
   -3.7210    0.4410    0.7750 C   0  0
   -2.4020    0.8690    0.6310 C   0  0
   -0.9240    2.7030   -0.2990 C   0  0
   -1.1540    0.1500    1.1350 C   0  0
    0.1890    1.9670   -0.0820 C   0  0
    0.1070    0.4690    0.2580 C   0  0  1  0  0  0
    1.5650    2.5900   -0.1560 C   0  0
    1.4260    0.0160    0.9900 C   0  0
   -0.0590   -0.2660   -1.0860 C   0  0
    2.3380    2.3990    1.1620 C   0  0
    1.2480   -1.1860    1.7210 O   0  0
    2.4490   -0.3530    0.0700 O   0  0
    1.9750    1.1060    1.9280 C   0  0
    1.4710   -2.2890    0.8790 C   0  0  1  0  0  0
    2.6060   -1.7600    0.0080 C   0  0  1  0  0  0
    1.8220   -3.5100    1.7230 C   0  0
    2.5290   -2.2110   -1.4450 C   0  0
    0.5740   -3.9940    2.4610 C   0  0
    3.2890   -3.5270   -1.6110 C   0  0
    0.8360   -5.2400    3.3070 C   0  0
    3.3160   -4.0120   -3.0630 C   0  0
   -3.1070    5.5100   -3.6210 H   0  0
   -6.2170    6.0760   -0.6910 H   0  0
   -2.3950    3.4450   -2.4810 H   0  0
   -5.5180    4.0140    0.4630 H   0  0
   -4.1560   -0.4390    1.2250 H   0  0
   -0.8630    3.7210   -0.6540 H   0  0
   -1.3440   -0.9240    1.1700 H   0  0
   -0.9840    0.4730    2.1620 H   0  0
    2.1090    2.1210   -0.9770 H   0  0
    1.5020    3.6500   -0.4020 H   0  0
    0.8500   -0.2230   -1.6900 H   0  0
   -0.8670    0.1760   -1.6700 H   0  0
   -0.3010   -1.3160   -0.9240 H   0  0
    3.4060    2.4040    0.9410 H   0  0
    2.1680    3.2540    1.8160 H   0  0
    2.8460    0.7560    2.4840 H   0  0
    1.2190    1.3420    2.6800 H   0  0
    0.5720   -2.4630    0.3030 H   0  0
    3.5720   -1.9960    0.4340 H   0  0
    2.2320   -4.3030    1.1000 H   0  0
    2.6190   -3.2730    2.4260 H   0  0
    2.9340   -1.4450   -2.1080 H   0  0
    1.4900   -2.3220   -1.7600 H   0  0
   -0.2440   -4.1680    1.7620 H   0  0
    0.1520   -3.1950    3.0720 H   0  0
    4.2990   -3.4410   -1.2150 H   0  0
    2.8770   -4.2950   -0.9570 H   0  0
   -0.0620   -5.5740    3.8280 H   0  0
    1.6020   -5.0430    4.0570 H   0  0
    1.1840   -6.0630    2.6840 H   0  0
    3.8730   -4.9470   -3.1450 H   0  0
    2.3050   -4.1660   -3.4360 H   0  0
    3.8030   -3.2770   -3.7050 H   0  0
  1  2  1  0
  2  3  2  0
  2  4  1  0
  3  5  1  0
  4  6  2  0
  5  7  2  0
  7  8  1  0
  8  9  1  0
  8 10  1  0
  9 11  2  0
 10 12  2  0
 10 13  1  0
 12 14  1  0
 13 15  2  0
 14 16  1  0
 15 17  1  0
 16 18  1  0
 16 19  1  0
 17 20  1  0
 18 21  1  0
 18 22  1  0
 18 23  1  0
 21 24  1  0
 22 25  1  0
 24 26  1  0
 25 27  1  0
 26 28  1  0
 27 29  1  0
 28 30  1  0
 29 31  1  0
  6  7  1  0
 11 12  1  0
 15 16  1  0
 20 23  1  0
 24 25  1  0
  3 32  1  0
  4 33  1  0
  5 34  1  0
  6 35  1  0
 11 36  1  0
 13 37  1  0
 14 38  1  0
 14 39  1  0
 17 40  1  0
 17 41  1  0
 19 42  1  0
 19 43  1  0
 19 44  1  0
 20 45  1  0
 20 46  1  0
 23 47  1  0
 23 48  1  0
 24 49  1  0
 25 50  1  0
 26 51  1  0
 26 52  1  0
 27 53  1  0
 27 54  1  0
 28 55  1  0
 28 56  1  0
 29 57  1  0
 29 58  1  0
 30 59  1  0
 30 60  1  0
 30 61  1  0
 31 62  1  0
 31 63  1  0
 31 64  1  0
M  END
> <Name>
CHEMBL193760

> <IC50 nM>
8.9

> <Molecule_ChEMBL_ID>
CHEMBL193760

> <Smiles>
CCC[C@H]1OC2(CCCC3=Cc4c(cnn4-c4ccc(F)cc4)C[C@@]32C)O[C@@H]1CCC

$$$$
CHEMBL311662
  SciTegic08162514323D

 57 61  0  0  1  0            999 V2000
   -4.8380    6.7400   -0.7830 F   0  0
   -4.3690    5.4960   -0.7030 C   0  0
   -3.1930    5.1430   -1.3890 C   0  0
   -5.0510    4.5350    0.0650 C   0  0
   -2.6990    3.8280   -1.3070 C   0  0
   -4.5590    3.2230    0.1470 C   0  0
   -3.3810    2.8650   -0.5370 C   0  0
   -2.9040    1.5960   -0.4570 N   0  0
   -3.6660    0.4750   -0.5640 N   0  0
   -1.6050    1.2460   -0.2640 C   0  0
   -2.9470   -0.6760   -0.4410 C   0  0
   -1.6800   -0.1350   -0.2440 C   0  0
   -0.3630    2.0250   -0.0980 C   0  0
   -0.3960   -0.9200    0.0100 C   0  0
    0.8160    1.3630   -0.1170 C   0  0
    0.8870   -0.1410   -0.4320 C   0  0  1  0  0  0
    2.1090    2.1040    0.1560 C   0  0
    2.1410   -0.7380    0.2600 C   0  0  1  0  0  0
    1.0270   -0.2720   -1.9570 C   0  0
    3.2970    1.4320   -0.5430 C   0  0
    2.2480   -2.2580    0.0760 C   0  0  2  0  0  0
    3.4590   -0.0470   -0.1540 C   0  0
    2.0940   -2.5490   -1.2950 O   0  0
    1.2070   -2.9790    0.8560 C   0  0
    3.6560   -2.6760    0.4980 C   0  0
    0.3770   -3.9200    0.2210 C   0  0
    1.0510   -2.7210    2.2290 C   0  0
   -0.6070   -4.6020    0.9570 C   0  0
    0.0660   -3.4000    2.9670 C   0  0
   -0.7640   -4.3420    2.3300 C   0  0
   -1.6950   -4.9860    3.0290 F   0  0
   -2.6680    5.8770   -1.9800 H   0  0
   -5.9550    4.8050    0.5920 H   0  0
   -1.7950    3.5760   -1.8400 H   0  0
   -5.0960    2.4980    0.7420 H   0  0
   -3.3070   -1.6950   -0.4860 H   0  0
   -0.4000    3.0960    0.0390 H   0  0
   -0.4510   -1.8910   -0.4880 H   0  0
   -0.3550   -1.1250    1.0800 H   0  0
    2.0290    3.1390   -0.1800 H   0  0
    2.2810    2.1350    1.2340 H   0  0
    2.0180   -0.5660    1.3300 H   0  0
    2.0720   -0.3130   -2.2660 H   0  0
    0.5640    0.5780   -2.4610 H   0  0
    0.5390   -1.1780   -2.3120 H   0  0
    4.2190    1.9770   -0.3320 H   0  0
    3.1470    1.5040   -1.6210 H   0  0
    4.1720   -0.1350    0.6660 H   0  0
    3.9120   -0.5720   -0.9980 H   0  0
    2.4380   -3.4430   -1.4370 H   0  0
    3.7110   -3.7540    0.6450 H   0  0
    4.3870   -2.3810   -0.2560 H   0  0
    3.9360   -2.1970    1.4380 H   0  0
    0.4900   -4.1230   -0.8340 H   0  0
    1.6860   -1.9980    2.7230 H   0  0
   -1.2420   -5.3220    0.4650 H   0  0
   -0.0490   -3.1990    4.0220 H   0  0
  1  2  1  0
  2  3  2  0
  2  4  1  0
  3  5  1  0
  4  6  2  0
  5  7  2  0
  7  8  1  0
  8  9  1  0
  8 10  1  0
  9 11  2  0
 10 12  2  0
 10 13  1  0
 12 14  1  0
 13 15  2  0
 14 16  1  0
 15 17  1  0
 16 18  1  0
 16 19  1  0
 17 20  1  0
 18 21  1  0
 18 22  1  0
 21 23  1  0
 21 24  1  0
 21 25  1  0
 24 26  2  0
 24 27  1  0
 26 28  1  0
 27 29  2  0
 28 30  2  0
 30 31  1  0
  6  7  1  0
 11 12  1  0
 15 16  1  0
 20 22  1  0
 29 30  1  0
  3 32  1  0
  4 33  1  0
  5 34  1  0
  6 35  1  0
 11 36  1  0
 13 37  1  0
 14 38  1  0
 14 39  1  0
 17 40  1  0
 17 41  1  0
 18 42  1  0
 19 43  1  0
 19 44  1  0
 19 45  1  0
 20 46  1  0
 20 47  1  0
 22 48  1  0
 22 49  1  0
 23 50  1  0
 25 51  1  0
 25 52  1  0
 25 53  1  0
 26 54  1  0
 27 55  1  0
 28 56  1  0
 29 57  1  0
M  END
> <Name>
CHEMBL311662

> <IC50 nM>
20

> <Molecule_ChEMBL_ID>
CHEMBL311662

> <Smiles>
C[C@]12Cc3cnn(-c4ccc(F)cc4)c3C=C1CCC[C@@H]2[C@](C)(O)c1ccc(F)cc1

$$$$
CHEMBL396997
  SciTegic08162514323D

 53 55  0  0  1  0            999 V2000
   -0.2910   -2.2850   -0.5940 S   0  0
   -1.5020   -1.8560    0.6900 C   0  0  2  0  0  0
   -1.3420   -2.0490   -2.0550 C   0  0
   -1.8090   -0.3790    0.6190 C   0  0
   -1.0100   -2.2850    2.0720 C   0  0
   -0.4750   -1.8850   -3.2730 C   0  0
   -0.7230    0.6430    0.6700 C   0  0
   -3.0940    0.0140    0.5080 C   0  0
   -0.9220   -2.3670   -4.4450 C   0  0
   -1.0570    2.0270    0.6000 C   0  0
    0.6330    0.2440    0.7890 C   0  0
   -3.4960    1.4770    0.4320 C   0  0
   -2.3480    2.4300    0.4840 N   0  0
   -0.0160    2.9900    0.6490 C   0  0
    1.6660    1.2110    0.8380 C   0  0
   -4.2480    1.6950   -0.8830 C   0  0
   -4.4300    1.7750    1.6080 C   0  0
    1.3340    2.5860    0.7680 C   0  0
    3.0590    0.7970    0.9590 C   0  0
    3.5720   -0.2380    0.1490 C   0  0
    3.8930    1.4370    1.8970 C   0  0
    2.8130   -0.8540   -0.7340 O   0  0
    4.9200   -0.6210    0.2850 C   0  0
    5.2360    1.0490    2.0250 C   0  0
    3.4430   -1.6970   -1.6870 C   0  0
    5.7500    0.0190    1.2190 C   0  0
   -2.4140   -2.4320    0.5350 H   0  0
   -1.9610   -1.1620   -1.9180 H   0  0
   -1.9940   -2.9140   -2.1760 H   0  0
   -0.6430   -3.3110    2.0720 H   0  0
   -1.8120   -2.2190    2.8050 H   0  0
   -0.1970   -1.6410    2.4080 H   0  0
    0.4940   -1.4080   -3.3090 H   0  0
   -3.8690   -0.7360    0.4730 H   0  0
   -0.4140   -2.3280   -5.3980 H   0  0
   -1.8930   -2.8400   -4.4120 H   0  0
    0.8850   -0.8070    0.8420 H   0  0
   -2.5630    3.4060    0.4340 H   0  0
   -0.2380    4.0490    0.5980 H   0  0
   -3.6190    1.4920   -1.7500 H   0  0
   -4.6000    2.7230   -0.9590 H   0  0
   -5.1170    1.0390   -0.9430 H   0  0
   -3.9320    1.6330    2.5680 H   0  0
   -5.3010    1.1210    1.5840 H   0  0
   -4.7830    2.8050    1.5670 H   0  0
    2.1060    3.3420    0.8050 H   0  0
    3.5120    2.2320    2.5240 H   0  0
    5.3200   -1.4120   -0.3320 H   0  0
    5.8730    1.5410    2.7440 H   0  0
    2.6820   -2.0740   -2.3690 H   0  0
    4.2680   -1.1450   -2.1410 H   0  0
    3.8670   -2.5510   -1.1580 H   0  0
    6.7830   -0.2790    1.3180 H   0  0
  1  2  1  0
  1  3  1  0
  2  4  1  0
  2  5  1  0
  3  6  1  0
  4  7  1  0
  4  8  2  0
  6  9  2  0
  7 10  2  0
  7 11  1  0
  8 12  1  0
 10 13  1  0
 10 14  1  0
 11 15  2  0
 12 16  1  0
 12 17  1  0
 14 18  2  0
 15 19  1  0
 19 20  2  0
 19 21  1  0
 20 22  1  0
 20 23  1  0
 21 24  2  0
 22 25  1  0
 23 26  2  0
 12 13  1  0
 15 18  1  0
 24 26  1  0
  2 27  1  0
  3 28  1  0
  3 29  1  0
  5 30  1  0
  5 31  1  0
  5 32  1  0
  6 33  1  0
  8 34  1  0
  9 35  1  0
  9 36  1  0
 11 37  1  0
 13 38  1  0
 14 39  1  0
 16 40  1  0
 16 41  1  0
 16 42  1  0
 17 43  1  0
 17 44  1  0
 17 45  1  0
 18 46  1  0
 21 47  1  0
 23 48  1  0
 24 49  1  0
 25 50  1  0
 25 51  1  0
 25 52  1  0
 26 53  1  0
M  END
> <Name>
CHEMBL396997

> <IC50 nM>
116

> <Molecule_ChEMBL_ID>
CHEMBL396997

> <Smiles>
C=CCSC(C)C1=CC(C)(C)Nc2ccc(-c3ccccc3OC)cc21

$$$$
CHEMBL3261412
  SciTegic08162514323D

 59 62  0  0  1  0            999 V2000
   -0.5780   -3.6560    0.1170 S   0  0
   -1.6270   -4.6600    0.1640 O   0  0
    0.2700   -3.7680   -1.0570 O   0  0
   -1.3910   -2.1230   -0.0230 N   0  0
    0.4120   -3.8340    1.5220 C   0  0
   -2.1350   -1.8530   -1.2420 C   0  0  2  0  0  0
    0.5470   -5.0980    2.1290 C   0  0
    1.0800   -2.7190    2.0570 C   0  0
   -2.4980   -0.3710   -1.3300 C   0  0
   -3.3560   -2.7680   -1.3380 C   0  0
    1.3540   -5.2400    3.2740 C   0  0
   -0.1560   -6.2810    1.5700 C   0  0
    1.8870   -2.8650    3.2010 C   0  0
    0.9410   -1.3810    1.4200 C   0  0
   -1.2930    0.4610   -1.4550 N   0  0
    2.0230   -4.1270    3.8090 C   0  0
   -1.4040    1.8030   -1.5230 C   0  0
    2.8750   -4.2810    5.0180 C   0  0
   -0.1720    2.5290   -1.6330 C   0  0
   -2.6470    2.4860   -1.4940 C   0  0
   -0.2460    3.9120   -1.7050 C   0  0
    1.1050    1.9650   -1.6700 C   0  0
   -2.6740    3.9020   -1.5740 C   0  0
    1.0570    4.2790   -1.7970 N   0  0
   -1.4650    4.6330   -1.6800 C   0  0
    1.8200    3.1370   -1.7750 N   0  0
    1.5410    5.5450   -1.8940 C   0  0
    2.5820    5.8460   -2.8010 C   0  0
    1.0140    6.5740   -1.0900 C   0  0
    3.0840    7.1100   -2.9140 N   0  0
    1.5390    7.8710   -1.2170 C   0  0
    2.5760    8.1120   -2.1390 C   0  0
   -2.0270   -1.9980    0.7770 H   0  0
   -1.3970   -2.1150   -2.0020 H   0  0
   -3.0610   -0.0590   -0.4510 H   0  0
   -3.1500   -0.1850   -2.1840 H   0  0
   -3.0510   -3.8070   -1.4690 H   0  0
   -3.9670   -2.6890   -0.4390 H   0  0
   -3.9790   -2.4920   -2.1890 H   0  0
    1.4590   -6.2090    3.7400 H   0  0
   -0.0820   -6.3750    0.4860 H   0  0
   -1.2150   -6.2300    1.8280 H   0  0
    0.2520   -7.1890    2.0120 H   0  0
    2.4000   -2.0100    3.6130 H   0  0
    0.9880   -1.3960    0.3320 H   0  0
    1.7320   -0.7250    1.7790 H   0  0
   -0.0140   -0.9410    1.7070 H   0  0
   -0.3910    0.0310   -1.4860 H   0  0
    3.3480   -3.3570    5.3520 H   0  0
    3.6620   -5.0060    4.8170 H   0  0
    2.2710   -4.6620    5.8400 H   0  0
   -3.5780    1.9430   -1.4140 H   0  0
    1.4800    0.9510   -1.6330 H   0  0
   -3.6170    4.4260   -1.5530 H   0  0
   -1.4790    5.7110   -1.7400 H   0  0
    3.0020    5.0700   -3.4260 H   0  0
    0.2170    6.3850   -0.3850 H   0  0
    1.1500    8.6780   -0.6110 H   0  0
    2.9790    9.1100   -2.2340 H   0  0
  1  2  2  0
  1  3  2  0
  1  4  1  0
  1  5  1  0
  4  6  1  0
  5  7  2  0
  5  8  1  0
  6  9  1  0
  6 10  1  0
  7 11  1  0
  7 12  1  0
  8 13  2  0
  8 14  1  0
  9 15  1  0
 11 16  2  0
 15 17  1  0
 16 18  1  0
 17 19  2  0
 17 20  1  0
 19 21  1  0
 19 22  1  0
 20 23  2  0
 21 24  1  0
 21 25  2  0
 22 26  2  0
 24 27  1  0
 27 28  2  0
 27 29  1  0
 28 30  1  0
 29 31  2  0
 30 32  2  0
 13 16  1  0
 23 25  1  0
 24 26  1  0
 31 32  1  0
  4 33  1  0
  6 34  1  0
  9 35  1  0
  9 36  1  0
 10 37  1  0
 10 38  1  0
 10 39  1  0
 11 40  1  0
 12 41  1  0
 12 42  1  0
 12 43  1  0
 13 44  1  0
 14 45  1  0
 14 46  1  0
 14 47  1  0
 15 48  1  0
 18 49  1  0
 18 50  1  0
 18 51  1  0
 20 52  1  0
 22 53  1  0
 23 54  1  0
 25 55  1  0
 28 56  1  0
 29 57  1  0
 31 58  1  0
 32 59  1  0
M  END
> <Name>
CHEMBL3261412

> <IC50 nM>
2

> <Molecule_ChEMBL_ID>
CHEMBL3261412

> <Smiles>
Cc1cc(C)c(S(=O)(=O)N[C@@H](C)CNc2cccc3c2cnn3-c2cccnc2)c(C)c1

$$$$
CHEMBL313400
  SciTegic08162514323D

 58 62  0  0  1  0            999 V2000
    5.4160   -4.3790    3.1470 F   0  0
    4.4920   -3.8540    2.3460 C   0  0
    3.1370   -3.8630    2.7230 C   0  0
    4.8770   -3.2850    1.1170 C   0  0
    2.7690   -4.3950    3.8730 O   0  0
    2.1700   -3.3050    1.8670 C   0  0
    3.9100   -2.7280    0.2660 C   0  0
    1.4040   -4.2890    4.2500 C   0  0
    2.5550   -2.7380    0.6390 C   0  0
    1.5290   -2.1480   -0.2620 C   0  0  2  0  0  0
    1.8790   -2.4080   -1.6030 O   0  0
    1.4220   -0.6290   -0.0780 C   0  0  2  0  0  0
    0.1700   -0.0310   -0.7690 C   0  0  2  0  0  0
    2.7420    0.0610   -0.4920 C   0  0
    0.1000    1.4730   -0.4550 C   0  0
   -1.1150   -0.8100   -0.3280 C   0  0
    0.3100   -0.1620   -2.2950 C   0  0
    2.5800    1.5410   -0.8810 C   0  0
   -1.0820    2.1350   -0.4350 C   0  0
    1.3920    2.2130   -0.1820 C   0  0
   -2.3970   -0.0270   -0.5820 C   0  0
   -2.3220    1.3560   -0.6020 C   0  0
   -3.6660   -0.5660   -0.7790 C   0  0
   -3.6210    1.7050   -0.7950 N   0  0
   -4.3850    0.5840   -0.9020 N   0  0
   -4.0980    2.9750   -0.8750 C   0  0
   -5.2760    3.3320   -0.1890 C   0  0
   -3.4180    3.9380   -1.6460 C   0  0
   -5.7680    4.6470   -0.2710 C   0  0
   -3.9140    5.2520   -1.7280 C   0  0
   -5.0880    5.6060   -1.0410 C   0  0
   -5.5550    6.8500   -1.1210 F   0  0
    5.9180   -3.2750    0.8260 H   0  0
    1.1290   -3.3140    2.1560 H   0  0
    4.2110   -2.2950   -0.6760 H   0  0
    1.2730   -4.8010    5.2030 H   0  0
    1.1230   -3.2360    4.2250 H   0  0
    0.8030   -4.8130    3.5060 H   0  0
    0.5640   -2.6150   -0.0660 H   0  0
    1.8240   -3.3670   -1.7320 H   0  0
    1.2990   -0.4570    0.9920 H   0  0
    3.4530   -0.0250    0.3280 H   0  0
    3.1930   -0.4630   -1.3340 H   0  0
   -1.1700   -1.7810   -0.8260 H   0  0
   -1.0720   -1.0180    0.7420 H   0  0
    1.3340    0.0100   -2.6230 H   0  0
   -0.3280    0.5590   -2.8030 H   0  0
    0.0170   -1.1580   -2.6250 H   0  0
    3.5000    2.0860   -0.6700 H   0  0
    2.4300    1.6130   -1.9590 H   0  0
   -1.1170    3.2050   -0.2990 H   0  0
    1.3100    3.2480   -0.5180 H   0  0
    1.5640    2.2440    0.8970 H   0  0
   -4.0240   -1.5860   -0.8240 H   0  0
   -5.8130    2.6080    0.4080 H   0  0
   -2.5140    3.6840   -2.1820 H   0  0
   -6.6700    4.9140    0.2580 H   0  0
   -3.3870    5.9860   -2.3200 H   0  0
  1  2  1  0
  2  3  2  0
  2  4  1  0
  3  5  1  0
  3  6  1  0
  4  7  2  0
  5  8  1  0
  6  9  2  0
  9 10  1  0
 10 11  1  0
 10 12  1  0
 12 13  1  0
 12 14  1  0
 13 15  1  0
 13 16  1  0
 13 17  1  0
 14 18  1  0
 15 19  2  0
 15 20  1  0
 16 21  1  0
 19 22  1  0
 21 23  1  0
 22 24  1  0
 23 25  2  0
 24 26  1  0
 26 27  2  0
 26 28  1  0
 27 29  1  0
 28 30  2  0
 29 31  2  0
 31 32  1  0
  7  9  1  0
 18 20  1  0
 21 22  2  0
 24 25  1  0
 30 31  1  0
  4 33  1  0
  6 34  1  0
  7 35  1  0
  8 36  1  0
  8 37  1  0
  8 38  1  0
 10 39  1  0
 11 40  1  0
 12 41  1  0
 14 42  1  0
 14 43  1  0
 16 44  1  0
 16 45  1  0
 17 46  1  0
 17 47  1  0
 17 48  1  0
 18 49  1  0
 18 50  1  0
 19 51  1  0
 20 52  1  0
 20 53  1  0
 23 54  1  0
 27 55  1  0
 28 56  1  0
 29 57  1  0
 30 58  1  0
M  END
> <Name>
CHEMBL313400

> <IC50 nM>
7.9

> <Molecule_ChEMBL_ID>
CHEMBL313400

> <Smiles>
COc1cc([C@H](O)[C@H]2CCCC3=Cc4c(cnn4-c4ccc(F)cc4)C[C@@]32C)ccc1F

$$$$
CHEMBL1085381
  SciTegic08162514323D

 55 58  0  0  0  0            999 V2000
   -4.5040   -2.2700   -0.2360 S   0  0
   -4.5290   -3.2830   -1.2770 O   0  0
   -5.6210   -1.3460   -0.3110 O   0  0
   -4.6860   -3.1230    1.2700 N   0  0
   -3.0410   -1.3670   -0.3930 C   0  0
   -3.6840   -4.1170    1.6150 C   0  0
   -2.5430   -1.0610   -1.6700 C   0  0
   -2.3540   -0.9410    0.7540 C   0  0
   -3.9800   -4.7210    2.9880 C   0  0
   -1.3520   -0.3260   -1.8050 C   0  0
   -1.1620   -0.2070    0.6250 C   0  0
   -3.2050   -6.0140    3.2440 C   0  0
   -3.8320   -3.7070    4.1230 C   0  0
   -0.6560    0.1040   -0.6520 C   0  0
   -0.8460   -0.0160   -3.1720 C   0  0
    0.5780    0.8650   -0.7620 C   0  0
    0.4390   -0.4770   -3.3010 F   0  0
   -0.8670    1.3400   -3.3710 F   0  0
   -1.6460   -0.6270   -4.1040 F   0  0
    1.8320    0.1930   -0.7930 C   0  0
    0.5370    2.2870   -0.8400 C   0  0
    3.0290    0.9490   -0.9000 C   0  0
    1.7360    3.0350   -0.9470 C   0  0
    2.9570    2.3260   -0.9750 C   0  0
    4.2830    0.3590   -0.9360 C   0  0
    4.2640    2.6800   -1.0640 N   0  0
    5.0140    1.5250   -1.0410 N   0  0
    4.7620    3.9420   -1.1620 C   0  0
    4.2170    4.9790   -0.3810 C   0  0
    5.8260    4.2150   -2.0430 C   0  0
    4.7330    6.2810   -0.4820 C   0  0
    6.3400    5.5180   -2.1430 C   0  0
    5.7930    6.5530   -1.3630 C   0  0
    6.2810    7.7870   -1.4590 F   0  0
   -4.7500   -2.4470    2.0430 H   0  0
   -3.6600   -4.8930    0.8500 H   0  0
   -2.6970   -3.6560    1.6040 H   0  0
   -3.0800   -1.3930   -2.5470 H   0  0
   -2.7380   -1.1780    1.7360 H   0  0
   -5.0510   -4.8830    3.1150 H   0  0
   -0.6450    0.1130    1.5200 H   0  0
   -2.1290   -5.8440    3.2660 H   0  0
   -3.4120   -6.7480    2.4670 H   0  0
   -3.4920   -6.4510    4.2010 H   0  0
   -3.9360   -4.1970    5.0920 H   0  0
   -2.8610   -3.2150    4.0760 H   0  0
   -4.6000   -2.9380    4.0570 H   0  0
    1.8750   -0.8870   -0.7340 H   0  0
   -0.4060    2.8110   -0.8200 H   0  0
    1.7110    4.1130   -1.0080 H   0  0
    4.6330   -0.6640   -0.8980 H   0  0
    3.3990    4.7890    0.3010 H   0  0
    6.2600    3.4320   -2.6520 H   0  0
    4.3090    7.0740    0.1190 H   0  0
    7.1560    5.7230   -2.8220 H   0  0
  1  2  2  0
  1  3  2  0
  1  4  1  0
  1  5  1  0
  4  6  1  0
  5  7  2  0
  5  8  1  0
  6  9  1  0
  7 10  1  0
  8 11  2  0
  9 12  1  0
  9 13  1  0
 10 14  2  0
 10 15  1  0
 14 16  1  0
 15 17  1  0
 15 18  1  0
 15 19  1  0
 16 20  2  0
 16 21  1  0
 20 22  1  0
 21 23  2  0
 22 24  2  0
 22 25  1  0
 24 26  1  0
 25 27  2  0
 26 28  1  0
 28 29  2  0
 28 30  1  0
 29 31  1  0
 30 32  2  0
 31 33  2  0
 33 34  1  0
 11 14  1  0
 23 24  1  0
 26 27  1  0
 32 33  1  0
  4 35  1  0
  6 36  1  0
  6 37  1  0
  7 38  1  0
  8 39  1  0
  9 40  1  0
 11 41  1  0
 12 42  1  0
 12 43  1  0
 12 44  1  0
 13 45  1  0
 13 46  1  0
 13 47  1  0
 20 48  1  0
 21 49  1  0
 23 50  1  0
 25 51  1  0
 29 52  1  0
 30 53  1  0
 31 54  1  0
 32 55  1  0
M  END
> <Name>
CHEMBL1085381

> <IC50 nM>
10000

> <Molecule_ChEMBL_ID>
CHEMBL1085381

> <Smiles>
CC(C)CNS(=O)(=O)c1ccc(-c2ccc3c(cnn3-c3ccc(F)cc3)c2)c(C(F)(F)F)c1

$$$$
CHEMBL501474
  SciTegic08162514323D

 79 82  0  0  1  0            999 V2000
   -3.6970   -0.2380   -0.5290 F   0  0
   -3.5590    0.5270    0.6110 C   0  0  2  0  0  0
   -5.0120    0.9060    1.0720 C   0  0  2  0  0  0
   -2.6540    1.7250    0.1620 C   0  0  1  0  0  0
   -2.8670   -0.3730    1.6780 C   0  0  2  0  0  0
   -5.7970   -0.3590    1.4300 C   0  0
   -5.7110    1.7680    0.0210 C   0  0
   -5.0040    1.7340    2.3650 C   0  0
   -2.6760    2.7730    1.1130 O   0  0
   -1.1800    1.3300   -0.1040 C   0  0
   -1.4340   -0.7250    1.2360 C   0  0  1  0  0  0
   -3.6760   -1.6620    1.9280 C   0  0
   -7.0450   -0.5880    0.9670 C   0  0
   -5.1210   -1.3570    2.3460 C   0  0
   -6.9530    1.5080   -0.4260 C   0  0
   -0.5700    0.5310    1.0640 C   0  0  1  0  0  0
   -0.6090   -1.5630    2.2130 C   0  0
   -7.7130    0.3550    0.0620 C   0  0
    0.8050   -0.1170    0.8200 C   0  0  1  0  0  0
   -0.4840    1.3650    2.3540 C   0  0
    0.8570   -1.2310    1.8890 C   0  0  1  0  0  0
   -8.8610    0.1860   -0.2720 O   0  0
    0.8200   -0.7310   -0.4630 O   0  0
    1.9670    0.8520    0.8480 C   0  0
    1.5740   -0.8260    3.1760 C   0  0
    2.0290   -1.1700   -0.8010 C   0  0
    1.8010    2.0290    0.6350 O   0  0
    3.3380    0.3050    1.1460 C   0  0
    2.6130   -2.0490   -0.2090 O   0  0
    2.6040   -0.5660   -1.8830 N   0  0
    3.9360    1.0680    2.1680 O   0  0
    3.9400   -0.9920   -2.3220 C   0  0
    4.4140   -0.1600   -3.5160 C   0  0
    5.8030   -0.5700   -4.0040 C   0  0
    5.7760    0.4840   -5.1090 C   0  0
    5.8380   -1.9980   -4.5530 C   0  0
    6.8950   -0.3110   -2.9670 C   0  0
   -3.0510    2.1560   -0.7580 H   0  0
   -2.8160    0.1780    2.6190 H   0  0
   -5.1950    2.6270   -0.3830 H   0  0
   -5.9710    1.7070    2.8690 H   0  0
   -4.7680    2.7770    2.1560 H   0  0
   -4.2560    1.3550    3.0610 H   0  0
   -3.1780    3.5060    0.7210 H   0  0
   -1.1480    0.7270   -1.0100 H   0  0
   -0.5740    2.2150   -0.3180 H   0  0
   -1.4800   -1.2640    0.2990 H   0  0
   -3.6820   -2.2830    1.0310 H   0  0
   -3.2030   -2.2600    2.7050 H   0  0
   -7.5700   -1.4840    1.2640 H   0  0
   -5.6900   -2.2890    2.3910 H   0  0
   -5.1230   -0.9530    3.3590 H   0  0
   -7.3950    2.1680   -1.1600 H   0  0
   -0.8200   -2.6150    2.0980 H   0  0
   -0.8670   -1.2990    3.2300 H   0  0
   -1.4650    1.7190    2.6760 H   0  0
    0.1500    2.2380    2.2070 H   0  0
   -0.0590    0.7770    3.1660 H   0  0
    1.3590   -2.0980    1.4860 H   0  0
    0.9450   -1.0200    4.0450 H   0  0
    2.5100   -1.3750    3.2850 H   0  0
    1.8130    0.2380    3.1680 H   0  0
    3.9670    0.3730    0.2580 H   0  0
    3.2580   -0.7270    1.4940 H   0  0
    2.1110    0.1600   -2.3630 H   0  0
    4.8130    0.6870    2.3340 H   0  0
    3.9100   -2.0510   -2.5780 H   0  0
    4.6370   -0.9040   -1.4900 H   0  0
    4.3870    0.9020   -3.2790 H   0  0
    3.6900   -0.2050   -4.3280 H   0  0
    5.6560    1.4920   -4.7090 H   0  0
    4.9490    0.3030   -5.7970 H   0  0
    6.6990    0.4630   -5.6880 H   0  0
    5.7520   -2.7400   -3.7600 H   0  0
    6.7720   -2.1840   -5.0840 H   0  0
    5.0180   -2.1620   -5.2520 H   0  0
    6.8340   -1.0060   -2.1310 H   0  0
    6.8130    0.6990   -2.5660 H   0  0
    7.8830   -0.4100   -3.4140 H   0  0
  2  1  1  0
  2  3  1  0
  2  4  1  0
  2  5  1  0
  3  6  1  0
  3  7  1  0
  3  8  1  0
  4  9  1  0
  4 10  1  0
  5 11  1  0
  5 12  1  0
  6 13  2  0
  6 14  1  0
  7 15  2  0
 10 16  1  0
 11 17  1  0
 13 18  1  0
 16 19  1  0
 16 20  1  0
 17 21  1  0
 18 22  2  0
 19 23  1  0
 19 24  1  0
 21 25  1  0
 23 26  1  0
 24 27  2  0
 24 28  1  0
 26 29  2  0
 26 30  1  0
 28 31  1  0
 30 32  1  0
 32 33  1  0
 33 34  1  0
 34 35  1  0
 34 36  1  0
 34 37  1  0
 11 16  1  0
 12 14  1  0
 15 18  1  0
 19 21  1  0
  4 38  1  0
  5 39  1  0
  7 40  1  0
  8 41  1  0
  8 42  1  0
  8 43  1  0
  9 44  1  0
 10 45  1  0
 10 46  1  0
 11 47  1  0
 12 48  1  0
 12 49  1  0
 13 50  1  0
 14 51  1  0
 14 52  1  0
 15 53  1  0
 17 54  1  0
 17 55  1  0
 20 56  1  0
 20 57  1  0
 20 58  1  0
 21 59  1  0
 25 60  1  0
 25 61  1  0
 25 62  1  0
 28 63  1  0
 28 64  1  0
 30 65  1  0
 31 66  1  0
 32 67  1  0
 32 68  1  0
 33 69  1  0
 33 70  1  0
 35 71  1  0
 35 72  1  0
 35 73  1  0
 36 74  1  0
 36 75  1  0
 36 76  1  0
 37 77  1  0
 37 78  1  0
 37 79  1  0
M  END
> <Name>
CHEMBL501474

> <IC50 nM>
12.3

> <Molecule_ChEMBL_ID>
CHEMBL501474

> <Smiles>
C[C@H]1C[C@H]2[C@@H]3CCC4=CC(=O)C=C[C@]4(C)[C@@]3(F)[C@@H](O)C[C@]2(C)[C@@]1(OC(=O)NCCC(C)(C)C)C(=O)CO

$$$$
CHEMBL500678
  SciTegic08162514323D

 67 70  0  0  1  0            999 V2000
   -2.2710    0.4160   -0.8830 F   0  0
   -2.1720    0.3160    0.4920 C   0  0  2  0  0  0
   -3.6270    0.0980    1.0230 C   0  0  2  0  0  0
   -1.4630    1.6390    0.9100 C   0  0  1  0  0  0
   -1.2910   -0.9240    0.8400 C   0  0  2  0  0  0
   -4.2360   -1.0900    0.2700 C   0  0
   -4.5080    1.3420    0.9300 C   0  0
   -3.6210   -0.2790    2.5120 C   0  0
   -1.4610    1.7850    2.3180 O   0  0
   -0.0100    1.7280    0.3790 C   0  0
    0.0780   -0.7680    0.1520 C   0  0  1  0  0  0
   -1.9820   -2.2850    0.5740 C   0  0
   -5.5530   -1.1500   -0.0160 C   0  0
   -3.3160   -2.2070   -0.1860 C   0  0
   -5.8160    1.2710    0.6130 C   0  0
    0.8180    0.4690    0.6950 C   0  0  1  0  0  0
    1.1170   -1.8670    0.3630 C   0  0
   -6.4380   -0.0100    0.2600 C   0  0
    2.1490    0.3240   -0.0660 C   0  0  1  0  0  0
    1.1090    0.3610    2.2010 C   0  0
    2.4570   -1.1860    0.0390 C   0  0  1  0  0  0
   -7.6390   -0.1210    0.1800 O   0  0
    1.9420    0.6410   -1.4400 O   0  0
    3.2480    1.2400    0.4160 C   0  0
    3.4750   -1.5490    1.1210 C   0  0
    3.0160    0.3940   -2.1840 C   0  0
    4.3240    0.7990    0.7500 O   0  0
    2.9670    2.7170    0.4710 C   0  0
    4.1080    0.1460   -1.7290 O   0  0
    2.8240    0.4350   -3.5350 N   0  0
    4.1780    3.4320    0.3610 O   0  0
    3.9590    0.1780   -4.4340 C   0  0
    4.3010   -1.3130   -4.4710 C   0  0
   -2.0100    2.4980    0.5210 H   0  0
   -1.1070   -0.9060    1.9140 H   0  0
   -4.0880    2.3160    1.1250 H   0  0
   -4.6150   -0.5550    2.8650 H   0  0
   -3.2690    0.5530    3.1190 H   0  0
   -2.9570   -1.1270    2.6910 H   0  0
   -2.1580    2.4240    2.5410 H   0  0
   -0.0570    1.8670   -0.7030 H   0  0
    0.4900    2.6170    0.7660 H   0  0
   -0.0840   -0.6740   -0.9140 H   0  0
   -2.1760   -2.7620    1.5370 H   0  0
   -1.3160   -2.9690    0.0510 H   0  0
   -5.9690   -2.0390   -0.4670 H   0  0
   -3.8300   -3.1660   -0.1070 H   0  0
   -3.1090   -2.0650   -1.2460 H   0  0
   -6.4140    2.1720    0.6170 H   0  0
    1.0800   -2.2210    1.3850 H   0  0
    0.9380   -2.7190   -0.2750 H   0  0
    1.6230   -0.5680    2.4490 H   0  0
    0.1860    0.3940    2.7750 H   0  0
    1.7380    1.1870    2.5310 H   0  0
    2.8320   -1.5470   -0.9080 H   0  0
    4.4960   -1.5390    0.7400 H   0  0
    3.2760   -2.5430    1.5200 H   0  0
    3.4240   -0.8420    1.9490 H   0  0
    2.5080    2.9730    1.4260 H   0  0
    2.3280    3.0040   -0.3650 H   0  0
    1.9200    0.6430   -3.9100 H   0  0
    3.9570    4.3750    0.4000 H   0  0
    3.7190    0.5410   -5.4320 H   0  0
    4.8190    0.7600   -4.1020 H   0  0
    3.4450   -1.8950   -4.8180 H   0  0
    5.1490   -1.4980   -5.1290 H   0  0
    4.5650   -1.6720   -3.4750 H   0  0
  2  1  1  0
  2  3  1  0
  2  4  1  0
  2  5  1  0
  3  6  1  0
  3  7  1  0
  3  8  1  0
  4  9  1  0
  4 10  1  0
  5 11  1  0
  5 12  1  0
  6 13  2  0
  6 14  1  0
  7 15  2  0
 10 16  1  0
 11 17  1  0
 13 18  1  0
 16 19  1  0
 16 20  1  0
 17 21  1  0
 18 22  2  0
 19 23  1  0
 19 24  1  0
 21 25  1  0
 23 26  1  0
 24 27  2  0
 24 28  1  0
 26 29  2  0
 26 30  1  0
 28 31  1  0
 30 32  1  0
 32 33  1  0
 11 16  1  0
 12 14  1  0
 15 18  1  0
 19 21  1  0
  4 34  1  0
  5 35  1  0
  7 36  1  0
  8 37  1  0
  8 38  1  0
  8 39  1  0
  9 40  1  0
 10 41  1  0
 10 42  1  0
 11 43  1  0
 12 44  1  0
 12 45  1  0
 13 46  1  0
 14 47  1  0
 14 48  1  0
 15 49  1  0
 17 50  1  0
 17 51  1  0
 20 52  1  0
 20 53  1  0
 20 54  1  0
 21 55  1  0
 25 56  1  0
 25 57  1  0
 25 58  1  0
 28 59  1  0
 28 60  1  0
 30 61  1  0
 31 62  1  0
 32 63  1  0
 32 64  1  0
 33 65  1  0
 33 66  1  0
 33 67  1  0
M  END
> <Name>
CHEMBL500678

> <IC50 nM>
5.1

> <Molecule_ChEMBL_ID>
CHEMBL500678

> <Smiles>
CCNC(=O)O[C@]1(C(=O)CO)[C@@H](C)C[C@H]2[C@@H]3CCC4=CC(=O)C=C[C@]4(C)[C@@]3(F)[C@@H](O)C[C@@]21C

$$$$
CHEMBL2087296
  SciTegic08162514323D

 61 64  0  0  0  0            999 V2000
    1.5290   -1.3910    2.4750 Br  0  0
   -0.3550   -1.4430    2.2770 C   0  0
   -1.1740   -0.2790    2.3050 C   0  0
   -0.9450   -2.7070    2.0960 C   0  0
   -0.6070    0.9650    2.4820 N   0  0
   -2.5820   -0.4140    2.1500 C   0  0
   -2.3340   -2.8320    1.9430 C   0  0
   -0.1700    1.3910    3.8200 C   0  0
   -0.4340    1.8850    1.3500 C   0  0
   -3.7720    1.0630    2.1700 Br  0  0
   -3.1470   -1.6890    1.9710 C   0  0
   -2.9430   -4.1740    1.7520 C   0  0
   -0.3320    2.8560    4.0080 C   0  0
   -0.1680    1.1500    0.0840 C   0  0
   -3.0410   -4.5510    0.2990 C   0  0
   -1.6090    3.3970    4.2400 C   0  0
    0.7890    3.7010    3.9550 C   0  0
   -1.2360    0.7870   -0.7560 C   0  0
    1.1500    0.8180   -0.2730 C   0  0
   -3.5140   -5.6110   -0.0390 O   0  0
   -2.5740   -3.6430   -0.5550 O   0  0
   -1.7640    4.7830    4.4180 C   0  0
    0.6370    5.0860    4.1350 C   0  0
   -0.9840    0.0920   -1.9510 C   0  0
    1.3980    0.1250   -1.4710 C   0  0
   -2.9730    5.2970    4.6350 F   0  0
   -0.6410    5.6270    4.3650 C   0  0
    1.6990    5.8870    4.0880 F   0  0
    0.3340   -0.2400   -2.3130 C   0  0
    0.5680   -0.8910   -3.4340 O   0  0
    1.6500   -0.5780   -4.1150 C   0  0
    2.3990   -1.5820   -4.7640 C   0  0
    2.0650    0.7640   -4.1970 C   0  0
    2.0200   -2.8420   -4.6920 O   0  0
    3.5530   -1.2360   -5.4880 C   0  0
    3.2170    1.1060   -4.9240 C   0  0
    2.7910   -3.8110   -5.3910 C   0  0
    3.9630    0.1040   -5.5680 C   0  0
   -0.3360   -3.6020    2.0700 H   0  0
    0.8770    1.1190    3.9550 H   0  0
   -0.7520    0.8590    4.5720 H   0  0
   -1.3320    2.4900    1.2360 H   0  0
    0.3980    2.5590    1.5590 H   0  0
   -4.2150   -1.8090    1.8520 H   0  0
   -3.9340   -4.1910    2.2070 H   0  0
   -2.3570   -4.9200    2.2890 H   0  0
   -2.4730    2.7480    4.2830 H   0  0
    1.7720    3.2850    3.7770 H   0  0
   -2.2520    1.0390   -0.4840 H   0  0
    1.9750    1.0960    0.3650 H   0  0
   -2.5410   -3.8520   -1.4960 H   0  0
   -1.8090   -0.1860   -2.5920 H   0  0
    2.4140   -0.1290   -1.7420 H   0  0
   -0.7600    6.6930    4.5040 H   0  0
    1.4920    1.5350   -3.7030 H   0  0
    4.1270   -2.0040   -5.9860 H   0  0
    3.5310    2.1370   -4.9840 H   0  0
    2.7440   -3.5800   -6.4550 H   0  0
    3.7850   -3.8380   -4.9450 H   0  0
    2.3300   -4.7850   -5.2400 H   0  0
    4.8500    0.3650   -6.1270 H   0  0
  1  2  1  0
  2  3  2  0
  2  4  1  0
  3  5  1  0
  3  6  1  0
  4  7  2  0
  5  8  1  0
  5  9  1  0
  6 10  1  0
  6 11  2  0
  7 12  1  0
  8 13  1  0
  9 14  1  0
 12 15  1  0
 13 16  2  0
 13 17  1  0
 14 18  2  0
 14 19  1  0
 15 20  2  0
 15 21  1  0
 16 22  1  0
 17 23  2  0
 18 24  1  0
 19 25  2  0
 22 26  1  0
 22 27  2  0
 23 28  1  0
 24 29  2  0
 29 30  1  0
 30 31  1  0
 31 32  2  0
 31 33  1  0
 32 34  1  0
 32 35  1  0
 33 36  2  0
 34 37  1  0
 35 38  2  0
  7 11  1  0
 23 27  1  0
 25 29  1  0
 36 38  1  0
  4 39  1  0
  8 40  1  0
  8 41  1  0
  9 42  1  0
  9 43  1  0
 11 44  1  0
 12 45  1  0
 12 46  1  0
 16 47  1  0
 17 48  1  0
 18 49  1  0
 19 50  1  0
 21 51  1  0
 24 52  1  0
 25 53  1  0
 27 54  1  0
 33 55  1  0
 35 56  1  0
 36 57  1  0
 37 58  1  0
 37 59  1  0
 37 60  1  0
 38 61  1  0
M  END
> <Name>
CHEMBL2087296

> <IC50 nM>
1256

> <Molecule_ChEMBL_ID>
CHEMBL2087296

> <Smiles>
COc1ccccc1Oc1ccc(CN(Cc2cc(F)cc(F)c2)c2c(Br)cc(CC(=O)O)cc2Br)cc1

$$$$
CHEMBL395716
  SciTegic08162514323D

 60 64  0  0  0  0            999 V2000
    2.8970   -1.3360   -2.6390 S   0  0
    1.5410   -0.3090   -2.6720 C   0  0
    3.3360   -0.9670   -4.2360 C   0  0
    1.4140    0.3320   -3.9200 C   0  0
    0.6390   -0.1290   -1.5410 C   0  0
    2.4430   -0.0490   -4.8090 C   0  0
    0.3140    1.3110   -4.2760 C   0  0
    0.9080   -0.6370   -0.3170 C   0  0
    0.8460    2.6130   -4.3380 O   0  0
    2.1110   -1.2010   -0.1800 O   0  0
   -0.0470   -0.5020    0.8320 C   0  0
   -0.1090    3.5860   -4.6970 C   0  0
    2.6410   -1.4360    1.0410 C   0  0
   -1.4610   -0.2830    0.6990 C   0  0
    0.5390   -0.5860    2.1330 C   0  0
    1.9320   -1.1330    2.2520 C   0  0
    3.9410   -1.9900    1.0880 C   0  0
   -2.1780    0.2520    1.8070 C   0  0
   -2.2400   -0.6370   -0.5390 C   0  0
   -0.2290   -0.1390    3.2460 C   0  0
    2.5940   -1.3830    3.5000 C   0  0
    4.5720   -2.2300    2.3220 C   0  0
   -3.4550    0.6900    1.6660 N   0  0
   -1.5530    0.3150    3.0760 C   0  0
   -3.4820   -0.1310   -0.7010 C   0  0
   -1.7270   -1.5820   -1.5980 C   0  0
    2.0230   -1.1430    4.6890 O   0  0
    3.9040   -1.9200    3.5230 C   0  0
   -4.1230    0.7740    0.3340 C   0  0
    2.7310   -0.3300    5.6150 C   0  0
    4.5180   -2.1430    4.6950 O   0  0
   -4.0430    2.2190   -0.1640 C   0  0
   -5.5900    0.3670    0.4900 C   0  0
    4.1970   -1.3910   -4.7360 H   0  0
   -0.2580    0.4430   -1.7250 H   0  0
    2.5350    0.3260   -5.8200 H   0  0
   -0.0920    1.0610   -5.2560 H   0  0
   -0.4510    1.2930   -3.4980 H   0  0
    0.3790    4.5610   -4.6940 H   0  0
   -0.5740    3.2770   -5.6330 H   0  0
   -0.8850    3.6000   -3.9300 H   0  0
    4.4590   -2.2280    0.1700 H   0  0
    0.1410   -0.1090    4.2540 H   0  0
    5.5650   -2.6500    2.3480 H   0  0
   -3.9770    0.9860    2.4690 H   0  0
   -2.0820    0.7050    3.9360 H   0  0
   -4.0430   -0.3810   -1.5920 H   0  0
   -0.8420   -2.1390   -1.2910 H   0  0
   -1.4750   -1.0250   -2.5020 H   0  0
   -2.5020   -2.3030   -1.8580 H   0  0
    2.1290    0.2950    6.2750 H   0  0
    3.3980    0.3240    5.0550 H   0  0
    3.3440   -0.9780    6.2400 H   0  0
    5.4120   -2.5060    4.6990 H   0  0
   -3.0120    2.5490   -0.2890 H   0  0
   -4.5270    2.8990    0.5370 H   0  0
   -4.5450    2.3220   -1.1270 H   0  0
   -5.6910   -0.6600    0.8440 H   0  0
   -6.1150    0.4450   -0.4610 H   0  0
   -6.0960    1.0180    1.2050 H   0  0
  1  2  1  0
  1  3  1  0
  2  4  2  0
  2  5  1  0
  3  6  2  0
  4  7  1  0
  5  8  2  0
  7  9  1  0
  8 10  1  0
  8 11  1  0
  9 12  1  0
 10 13  1  0
 11 14  2  0
 11 15  1  0
 13 16  2  0
 13 17  1  0
 14 18  1  0
 14 19  1  0
 15 20  2  0
 16 21  1  0
 17 22  2  0
 18 23  1  0
 18 24  2  0
 19 25  2  0
 19 26  1  0
 21 27  1  0
 21 28  2  0
 23 29  1  0
 27 30  1  0
 28 31  1  0
 29 32  1  0
 29 33  1  0
  4  6  1  0
 15 16  1  0
 20 24  1  0
 22 28  1  0
 25 29  1  0
  3 34  1  0
  5 35  1  0
  6 36  1  0
  7 37  1  0
  7 38  1  0
 12 39  1  0
 12 40  1  0
 12 41  1  0
 17 42  1  0
 20 43  1  0
 22 44  1  0
 23 45  1  0
 24 46  1  0
 25 47  1  0
 26 48  1  0
 26 49  1  0
 26 50  1  0
 30 51  1  0
 30 52  1  0
 30 53  1  0
 31 54  1  0
 32 55  1  0
 32 56  1  0
 32 57  1  0
 33 58  1  0
 33 59  1  0
 33 60  1  0
M  END
> <Name>
CHEMBL395716

> <IC50 nM>
0.2

> <Molecule_ChEMBL_ID>
CHEMBL395716

> <Smiles>
COCc1ccsc1/C=C1\Oc2ccc(O)c(OC)c2-c2ccc3c(c21)C(C)=CC(C)(C)N3

$$$$
CHEMBL1083784
  SciTegic08162514323D

 65 69  0  0  0  0            999 V2000
   -4.8650   -1.5920    0.9040 S   0  0
   -6.0040   -2.3810    1.3440 O   0  0
   -5.2440   -0.3260    0.3030 O   0  0
   -3.9690   -1.2620    2.2130 N   0  0
   -3.9880   -2.5100   -0.2660 C   0  0
   -2.8100   -0.5430    2.0860 C   0  0
   -4.1620   -2.2480   -1.6350 C   0  0
   -3.1010   -3.5160    0.1540 C   0  0
   -2.4100   -0.0660    0.8220 C   0  0
   -2.0190   -0.2770    3.2170 C   0  0
   -3.4490   -2.9940   -2.5860 C   0  0
   -2.3890   -4.2620   -0.7970 C   0  0
   -1.2190    0.6720    0.6890 C   0  0
   -0.8300    0.4610    3.0880 C   0  0
   -2.5600   -4.0020   -2.1700 C   0  0
   -0.4260    0.9380    1.8260 C   0  0
   -0.8240    1.1600   -0.6620 C   0  0
   -1.8050   -4.7910   -3.1780 C   0  0
    0.8090    1.6990    1.7150 C   0  0
    0.4830    0.8200   -0.9060 F   0  0
   -0.9570    2.5240   -0.7130 F   0  0
   -1.6310    0.5880   -1.6090 F   0  0
   -0.4940   -5.3300   -2.6020 C   0  0
   -1.6030   -4.0060   -4.4730 C   0  0
   -2.8810   -5.8710   -3.3050 C   0  0
    2.0650    1.0270    1.6860 C   0  0
    0.7680    3.1210    1.6370 C   0  0
    3.2600    1.7830    1.5760 C   0  0
    1.9670    3.8690    1.5290 C   0  0
    3.1880    3.1600    1.5040 C   0  0
    4.5140    1.1930    1.5410 C   0  0
    4.4940    3.5140    1.4140 N   0  0
    5.2440    2.3600    1.4380 N   0  0
    4.9920    4.7760    1.3160 C   0  0
    6.0410    5.0530    0.4180 C   0  0
    4.4610    5.8090    2.1130 C   0  0
    6.5550    6.3580    0.3180 C   0  0
    4.9790    7.1120    2.0120 C   0  0
    6.0240    7.3870    1.1130 C   0  0
    6.5120    8.6210    1.0200 F   0  0
   -4.2620   -1.5820    3.1130 H   0  0
   -4.8460   -1.4730   -1.9550 H   0  0
   -2.9690   -3.7150    1.2090 H   0  0
   -3.0120   -0.2660   -0.0550 H   0  0
   -2.3100   -0.6330    4.1950 H   0  0
   -3.5860   -2.7890   -3.6390 H   0  0
   -1.7070   -5.0350   -0.4710 H   0  0
   -0.2340    0.6540    3.9690 H   0  0
    0.0720   -4.5550   -2.0880 H   0  0
    0.1350   -5.7360   -3.3950 H   0  0
   -0.6870   -6.1310   -1.8890 H   0  0
   -2.5330   -3.8930   -5.0290 H   0  0
   -0.8850   -4.5080   -5.1210 H   0  0
   -1.2190   -3.0080   -4.2600 H   0  0
   -3.8260   -5.4360   -3.6330 H   0  0
   -2.5760   -6.6370   -4.0160 H   0  0
   -3.0550   -6.3570   -2.3440 H   0  0
    2.1060   -0.0530    1.7440 H   0  0
   -0.1760    3.6450    1.6580 H   0  0
    1.9440    4.9470    1.4710 H   0  0
    4.8650    0.1700    1.5800 H   0  0
    6.4630    4.2760   -0.2030 H   0  0
    3.6560    5.6150    2.8090 H   0  0
    7.3600    6.5650   -0.3730 H   0  0
    4.5670    7.9010    2.6250 H   0  0
  1  2  2  0
  1  3  2  0
  1  4  1  0
  1  5  1  0
  4  6  1  0
  5  7  2  0
  5  8  1  0
  6  9  2  0
  6 10  1  0
  7 11  1  0
  8 12  2  0
  9 13  1  0
 10 14  2  0
 11 15  2  0
 13 16  2  0
 13 17  1  0
 15 18  1  0
 16 19  1  0
 17 20  1  0
 17 21  1  0
 17 22  1  0
 18 23  1  0
 18 24  1  0
 18 25  1  0
 19 26  2  0
 19 27  1  0
 26 28  1  0
 27 29  2  0
 28 30  2  0
 28 31  1  0
 30 32  1  0
 31 33  2  0
 32 34  1  0
 34 35  2  0
 34 36  1  0
 35 37  1  0
 36 38  2  0
 37 39  2  0
 39 40  1  0
 12 15  1  0
 14 16  1  0
 29 30  1  0
 32 33  1  0
 38 39  1  0
  4 41  1  0
  7 42  1  0
  8 43  1  0
  9 44  1  0
 10 45  1  0
 11 46  1  0
 12 47  1  0
 14 48  1  0
 23 49  1  0
 23 50  1  0
 23 51  1  0
 24 52  1  0
 24 53  1  0
 24 54  1  0
 25 55  1  0
 25 56  1  0
 25 57  1  0
 26 58  1  0
 27 59  1  0
 29 60  1  0
 31 61  1  0
 35 62  1  0
 36 63  1  0
 37 64  1  0
 38 65  1  0
M  END
> <Name>
CHEMBL1083784

> <IC50 nM>
10000

> <Molecule_ChEMBL_ID>
CHEMBL1083784

> <Smiles>
CC(C)(C)c1ccc(S(=O)(=O)Nc2ccc(-c3ccc4c(cnn4-c4ccc(F)cc4)c3)c(C(F)(F)F)c2)cc1

$$$$
CHEMBL1085109
  SciTegic08162514323D

 38 41  0  0  0  0            999 V2000
    4.8480    6.0940   -0.6060 F   0  0
    4.3600    4.8590   -0.5100 C   0  0
    3.3130    4.5840    0.3870 C   0  0
    4.8930    3.8300   -1.3050 C   0  0
    2.7970    3.2810    0.4880 C   0  0
    4.3790    2.5250   -1.2050 C   0  0
    3.3280    2.2480   -0.3090 C   0  0
    2.8300    0.9880   -0.2110 N   0  0
    3.5800   -0.1680   -0.1880 N   0  0
    1.5240    0.6330   -0.1190 C   0  0
    2.8500   -1.3340   -0.0820 C   0  0
    1.5960   -0.7440   -0.0470 C   0  0
    0.3030    1.3420   -0.0940 C   0  0
    0.3990   -1.5000    0.0600 C   0  0
   -0.8960    0.5940    0.0140 C   0  0
   -0.8550   -0.8280    0.0920 C   0  0
   -2.0900   -1.5900    0.2030 C   0  0
   -2.2500   -2.7850   -0.5250 C   0  0
   -3.1290   -1.1330    1.0370 C   0  0
   -3.4430   -3.5200   -0.4180 C   0  0
   -4.3200   -1.8690    1.1430 C   0  0
   -4.4780   -3.0630    0.4160 C   0  0
   -5.7400   -3.8400    0.5290 C   0  0
    2.9010    5.3730    1.0000 H   0  0
    5.6980    4.0370   -1.9940 H   0  0
    1.9900    3.0900    1.1840 H   0  0
    4.8010    1.7480   -1.8240 H   0  0
    3.1990   -2.3560   -0.0430 H   0  0
    0.2790    2.4220   -0.1520 H   0  0
    0.4420   -2.5780    0.1190 H   0  0
   -1.8400    1.1190    0.0350 H   0  0
   -1.4630   -3.1490   -1.1700 H   0  0
   -3.0210   -0.2170    1.6020 H   0  0
   -3.5580   -4.4360   -0.9770 H   0  0
   -5.1130   -1.5140    1.7850 H   0  0
   -6.3320   -3.4530    1.3590 H   0  0
   -6.2730   -3.8090   -0.4200 H   0  0
   -5.5060   -4.8830    0.7460 H   0  0
  1  2  1  0
  2  3  2  0
  2  4  1  0
  3  5  1  0
  4  6  2  0
  5  7  2  0
  7  8  1  0
  8  9  1  0
  8 10  1  0
  9 11  2  0
 10 12  1  0
 10 13  2  0
 12 14  2  0
 13 15  1  0
 14 16  1  0
 16 17  1  0
 17 18  2  0
 17 19  1  0
 18 20  1  0
 19 21  2  0
 20 22  2  0
 22 23  1  0
  6  7  1  0
 11 12  1  0
 15 16  2  0
 21 22  1  0
  3 24  1  0
  4 25  1  0
  5 26  1  0
  6 27  1  0
 11 28  1  0
 13 29  1  0
 14 30  1  0
 15 31  1  0
 18 32  1  0
 19 33  1  0
 20 34  1  0
 21 35  1  0
 23 36  1  0
 23 37  1  0
 23 38  1  0
M  END
> <Name>
CHEMBL1085109

> <IC50 nM>
10000

> <Molecule_ChEMBL_ID>
CHEMBL1085109

> <Smiles>
Cc1ccc(-c2ccc3c(cnn3-c3ccc(F)cc3)c2)cc1

$$$$
CHEMBL1084344
  SciTegic08162514323D

 36 39  0  0  0  0            999 V2000
    4.5000    5.8830   -0.5590 F   0  0
    4.0120    4.6470   -0.4630 C   0  0
    2.9650    4.3710    0.4340 C   0  0
    4.5430    3.6170   -1.2580 C   0  0
    2.4490    3.0680    0.5350 C   0  0
    4.0290    2.3120   -1.1580 C   0  0
    2.9800    2.0350   -0.2620 C   0  0
    2.4820    0.7750   -0.1640 N   0  0
    3.2320   -0.3810   -0.1410 N   0  0
    1.1740    0.4200   -0.0720 C   0  0
    2.5000   -1.5470   -0.0350 C   0  0
    1.2480   -0.9570    0.0000 C   0  0
   -0.0470    1.1310   -0.0470 C   0  0
    0.0510   -1.7110    0.1070 C   0  0
   -1.2440    0.3810    0.0610 C   0  0
   -1.2030   -1.0410    0.1390 C   0  0
   -2.4400   -1.8030    0.2500 C   0  0
   -3.4770   -1.3440    1.0820 C   0  0
   -2.5980   -2.9980   -0.4770 C   0  0
   -4.6680   -2.0820    1.1880 C   0  0
   -3.7910   -3.7310   -0.3670 C   0  0
   -4.8300   -3.2770    0.4630 C   0  0
   -5.9470   -3.9670    0.5640 O   0  0
    2.5530    5.1600    1.0470 H   0  0
    5.3480    3.8240   -1.9490 H   0  0
    1.6430    2.8770    1.2300 H   0  0
    4.4510    1.5350   -1.7790 H   0  0
    2.8520   -2.5680    0.0020 H   0  0
   -0.0700    2.2090   -0.1050 H   0  0
    0.0920   -2.7910    0.1660 H   0  0
   -2.1900    0.9060    0.0820 H   0  0
   -3.3710   -0.4280    1.6470 H   0  0
   -1.8110   -3.3630   -1.1210 H   0  0
   -5.4630   -1.7290    1.8280 H   0  0
   -3.9080   -4.6490   -0.9280 H   0  0
   -6.0450   -4.7850    0.0610 H   0  0
  1  2  1  0
  2  3  2  0
  2  4  1  0
  3  5  1  0
  4  6  2  0
  5  7  2  0
  7  8  1  0
  8  9  1  0
  8 10  1  0
  9 11  2  0
 10 12  1  0
 10 13  2  0
 12 14  2  0
 13 15  1  0
 14 16  1  0
 16 17  1  0
 17 18  2  0
 17 19  1  0
 18 20  1  0
 19 21  2  0
 20 22  2  0
 22 23  1  0
  6  7  1  0
 11 12  1  0
 15 16  2  0
 21 22  1  0
  3 24  1  0
  4 25  1  0
  5 26  1  0
  6 27  1  0
 11 28  1  0
 13 29  1  0
 14 30  1  0
 15 31  1  0
 18 32  1  0
 19 33  1  0
 20 34  1  0
 21 35  1  0
 23 36  1  0
M  END
> <Name>
CHEMBL1084344

> <IC50 nM>
630.96

> <Molecule_ChEMBL_ID>
CHEMBL1084344

> <Smiles>
Oc1ccc(-c2ccc3c(cnn3-c3ccc(F)cc3)c2)cc1

$$$$
CHEMBL1085380
  SciTegic08162514323D

 52 55  0  0  0  0            999 V2000
   -3.8970   -2.8690    0.6780 S   0  0
   -4.6470   -2.3870    1.8240 O   0  0
   -3.5630   -4.2790    0.7640 O   0  0
   -4.9590   -2.7110   -0.6910 N   0  0
   -2.4280   -1.9690    0.5720 C   0  0
   -6.2130   -3.4450   -0.6700 C   0  0
   -1.6520   -1.7560    1.7230 C   0  0
   -2.0120   -1.4490   -0.6660 C   0  0
   -6.9490   -3.2850   -2.0000 C   0  0
   -0.4550   -1.0230    1.6450 C   0  0
   -0.8140   -0.7170   -0.7500 C   0  0
   -8.2770   -4.0430   -2.0330 C   0  0
   -0.0330   -0.5000    0.4000 C   0  0
    0.3460   -0.8150    2.8830 C   0  0
    1.2050    0.2620    0.2890 C   0  0
    1.5020   -1.5490    2.8090 F   0  0
   -0.3830   -1.2190    3.9710 F   0  0
    0.6560    0.5140    3.0080 F   0  0
    2.4590   -0.4100    0.2600 C   0  0
    1.1640    1.6840    0.2110 C   0  0
    3.6560    0.3460    0.1520 C   0  0
    2.3610    2.4320    0.1050 C   0  0
    3.5820    1.7230    0.0780 C   0  0
    4.9080   -0.2440    0.1170 C   0  0
    4.8910    2.0760   -0.0120 N   0  0
    5.6390    0.9220    0.0120 N   0  0
    5.3890    3.3380   -0.1090 C   0  0
    6.4450    3.6130   -0.9980 C   0  0
    4.8480    4.3730    0.6780 C   0  0
    6.9610    4.9180   -1.0980 C   0  0
    5.3630    5.6780    0.5760 C   0  0
    6.4200    5.9490   -0.3110 C   0  0
    6.9060    7.1840   -0.4060 F   0  0
   -5.1700   -1.7150   -0.8500 H   0  0
   -6.0160   -4.4960   -0.4610 H   0  0
   -6.8280   -3.0880    0.1560 H   0  0
   -1.9820   -2.1600    2.6700 H   0  0
   -2.6070   -1.6130   -1.5510 H   0  0
   -7.1020   -2.2310   -2.2310 H   0  0
   -6.3130   -3.5860   -2.8320 H   0  0
   -0.5080   -0.3240   -1.7090 H   0  0
   -8.7770   -3.9000   -2.9900 H   0  0
   -8.1170   -5.1090   -1.8710 H   0  0
   -8.9450   -3.6840   -1.2500 H   0  0
    2.5000   -1.4880    0.3180 H   0  0
    0.2190    2.2090    0.2320 H   0  0
    2.3380    3.5100    0.0450 H   0  0
    5.2600   -1.2680    0.1540 H   0  0
    6.8750    2.8320   -1.6090 H   0  0
    4.0350    4.1840    1.3650 H   0  0
    7.7720    5.1230   -1.7790 H   0  0
    4.9450    6.4670    1.1820 H   0  0
  1  2  2  0
  1  3  2  0
  1  4  1  0
  1  5  1  0
  4  6  1  0
  5  7  2  0
  5  8  1  0
  6  9  1  0
  7 10  1  0
  8 11  2  0
  9 12  1  0
 10 13  2  0
 10 14  1  0
 13 15  1  0
 14 16  1  0
 14 17  1  0
 14 18  1  0
 15 19  2  0
 15 20  1  0
 19 21  1  0
 20 22  2  0
 21 23  2  0
 21 24  1  0
 23 25  1  0
 24 26  2  0
 25 27  1  0
 27 28  2  0
 27 29  1  0
 28 30  1  0
 29 31  2  0
 30 32  2  0
 32 33  1  0
 11 13  1  0
 22 23  1  0
 25 26  1  0
 31 32  1  0
  4 34  1  0
  6 35  1  0
  6 36  1  0
  7 37  1  0
  8 38  1  0
  9 39  1  0
  9 40  1  0
 11 41  1  0
 12 42  1  0
 12 43  1  0
 12 44  1  0
 19 45  1  0
 20 46  1  0
 22 47  1  0
 24 48  1  0
 28 49  1  0
 29 50  1  0
 30 51  1  0
 31 52  1  0
M  END
> <Name>
CHEMBL1085380

> <IC50 nM>
10000

> <Molecule_ChEMBL_ID>
CHEMBL1085380

> <Smiles>
CCCNS(=O)(=O)c1ccc(-c2ccc3c(cnn3-c3ccc(F)cc3)c2)c(C(F)(F)F)c1

$$$$
CHEMBL3421879
  SciTegic08162514323D

 50 53  0  0  1  0            999 V2000
    1.4750    3.1450    2.2150 S   0  0
    2.4570    2.0740    1.3340 C   0  0
    2.6080    3.2350    3.4650 C   0  0
    3.6330    1.7810    1.9710 N   0  0
    2.0590    1.5100   -0.0180 C   0  0  1  0  0  0
    3.7230    2.4360    3.1760 C   0  0
    2.9900    2.0120   -0.9650 O   0  0
    2.0740   -0.0660    0.0120 C   0  0  2  0  0  0
    0.6700    2.0720   -0.4490 C   0  0
    3.3910   -0.5720   -0.1560 O   0  0
    1.1930   -0.6210   -1.1290 C   0  0
    1.6270   -0.6500    1.3610 C   0  0
   -0.4610    1.0740   -0.1700 C   0  0  2  0  0  0
   -0.3200   -0.2280   -1.0100 C   0  0  2  0  0  0
   -1.8750    1.6660   -0.3110 C   0  0
   -1.2380   -1.2320   -0.3750 C   0  0
   -0.8220    0.0040   -2.4470 C   0  0
   -3.0000    0.6000   -0.3010 C   0  0
   -2.5590   -0.8010   -0.0290 C   0  0
   -0.8630   -2.5760   -0.0960 C   0  0
   -0.7580   -1.2600   -3.3070 C   0  0
   -3.4670   -1.7070    0.5720 C   0  0
   -1.7750   -3.4690    0.5100 C   0  0
   -3.0760   -3.0370    0.8440 C   0  0
   -3.9390   -3.8870    1.4160 O   0  0
    2.4790    3.8300    4.3570 H   0  0
    4.5860    2.3190    3.8140 H   0  0
    3.8770    1.7790   -0.6450 H   0  0
    0.4710    3.0200    0.0550 H   0  0
    0.6390    2.3010   -1.5160 H   0  0
    3.3220   -1.5390   -0.1990 H   0  0
    1.5880   -0.1820   -2.0490 H   0  0
    1.3540   -1.6850   -1.2890 H   0  0
    1.0980   -1.5960    1.2380 H   0  0
    0.9590    0.0410    1.8770 H   0  0
    2.4840   -0.8280    2.0080 H   0  0
   -0.3670    0.8300    0.8910 H   0  0
   -1.9410    2.2420   -1.2340 H   0  0
   -2.0410    2.3850    0.4940 H   0  0
   -1.8320    0.4140   -2.4420 H   0  0
   -0.2750    0.8200   -2.9200 H   0  0
   -3.7600    0.8990    0.4220 H   0  0
   -3.5000    0.6020   -1.2720 H   0  0
    0.1150   -2.9650   -0.3260 H   0  0
   -1.1390   -1.0640   -4.3090 H   0  0
    0.2680   -1.6230   -3.3810 H   0  0
   -1.3610   -2.0550   -2.8690 H   0  0
   -4.4650   -1.3850    0.8260 H   0  0
   -1.4750   -4.4860    0.7190 H   0  0
   -4.8280   -3.5780    1.6390 H   0  0
  1  2  1  0
  1  3  1  0
  2  4  2  0
  2  5  1  0
  3  6  2  0
  5  7  1  0
  5  8  1  0
  5  9  1  0
  8 10  1  0
  8 11  1  0
  8 12  1  0
 13  9  1  0
 11 14  1  0
 13 15  1  0
 14 16  1  0
 14 17  1  0
 15 18  1  0
 16 19  2  0
 16 20  1  0
 17 21  1  0
 19 22  1  0
 20 23  2  0
 22 24  2  0
 24 25  1  0
  4  6  1  0
 13 14  1  0
 18 19  1  0
 23 24  1  0
  3 26  1  0
  6 27  1  0
  7 28  1  0
  9 29  1  0
  9 30  1  0
 10 31  1  0
 11 32  1  0
 11 33  1  0
 12 34  1  0
 12 35  1  0
 12 36  1  0
 13 37  1  0
 15 38  1  0
 15 39  1  0
 17 40  1  0
 17 41  1  0
 18 42  1  0
 18 43  1  0
 20 44  1  0
 21 45  1  0
 21 46  1  0
 21 47  1  0
 22 48  1  0
 23 49  1  0
 25 50  1  0
M  END
> <Name>
CHEMBL3421879

> <IC50 nM>
83

> <Molecule_ChEMBL_ID>
CHEMBL3421879

> <Smiles>
CC[C@@]12C[C@@](C)(O)[C@](O)(c3nccs3)C[C@H]1CCc1cc(O)ccc12

$$$$
CHEMBL184313
  SciTegic08162514323D

 59 62  0  0  1  0            999 V2000
    5.4280   -2.1480    2.0220 O   0  0
    4.2640   -1.8360    1.9220 C   0  0
    3.2300   -2.8440    1.6520 C   0  0
    3.8110   -0.4080    2.0760 C   0  0
    2.0100   -2.5120    1.1820 C   0  0
    2.6930   -0.0190    1.0920 C   0  0
    1.6660   -1.1090    0.8090 C   0  0
    0.9730   -3.6020    1.0310 C   0  0
    0.4750   -0.8180    0.2230 C   0  0
   -0.4470   -3.0290    0.9860 C   0  0
   -0.5410   -1.9140   -0.0780 C   0  0  3  0  0  0
    0.0490    0.5880   -0.1660 C   0  0  2  0  0  0
   -1.9630   -1.3550   -0.3750 C   0  0  3  0  0  0
   -1.2340    0.9380    0.6060 C   0  0
   -0.1230    0.7190   -1.6840 C   0  0
   -2.3730   -0.0900    0.4140 C   0  0  2  0  0  0
   -3.1310   -2.3070   -0.0820 C   0  0
    0.9610    1.5840   -2.3260 C   0  0
   -2.8160   -0.7340    1.7400 C   0  0  2  0  0  0
   -3.5570    0.5490   -0.3280 C   0  0
   -3.4980   -2.0610    1.3810 C   0  0
    0.7620    3.0760   -2.0590 C   0  0
   -3.6840    0.1060    2.4770 O   0  0
    1.8200    3.9430   -2.7380 C   0  0
    1.6190    5.4360   -2.4730 C   0  0
    3.4630   -3.8810    1.8460 H   0  0
    3.4490   -0.2790    3.0980 H   0  0
    4.6580    0.2700    1.9650 H   0  0
    2.2090    0.8610    1.5120 H   0  0
    3.1390    0.2850    0.1450 H   0  0
    1.0490   -4.3120    1.8560 H   0  0
    1.1760   -4.1580    0.1150 H   0  0
   -1.1350   -3.8460    0.7720 H   0  0
   -0.7130   -2.6480    1.9710 H   0  0
   -0.2210   -2.3850   -1.0080 H   0  0
    0.7990    1.3240    0.1070 H   0  0
   -1.9810   -1.1250   -1.4320 H   0  0
   -1.5650    1.9380    0.3150 H   0  0
   -0.9840    1.0270    1.6640 H   0  0
   -0.1620   -0.2640   -2.1520 H   0  0
   -1.1150    1.0980   -1.9260 H   0  0
   -3.9730   -2.0470   -0.7090 H   0  0
   -2.9100   -3.3400   -0.2990 H   0  0
    1.9510    1.2640   -2.0060 H   0  0
    1.0210    1.3910   -3.3980 H   0  0
   -1.9610   -0.9260    2.3710 H   0  0
   -3.8300    1.5140    0.1000 H   0  0
   -4.4340   -0.0960   -0.2810 H   0  0
   -3.3150    0.7070   -1.3790 H   0  0
   -3.1310   -2.8550    2.0140 H   0  0
   -4.5740   -2.0330    1.4920 H   0  0
   -0.2400    3.3910   -2.3520 H   0  0
    0.7300    3.2740   -0.9860 H   0  0
   -3.1740    0.8910    2.7330 H   0  0
    2.8220    3.6310   -2.4430 H   0  0
    1.8520    3.7440   -3.8090 H   0  0
    2.3950    6.0240   -2.9630 H   0  0
    0.6450    5.7640   -2.8320 H   0  0
    1.6680    5.6470   -1.4040 H   0  0
  1  2  2  0
  2  3  1  0
  2  4  1  0
  3  5  2  0
  4  6  1  0
  5  7  1  0
  5  8  1  0
  7  9  2  0
  8 10  1  0
  9 11  1  0
  9 12  1  0
 11 13  1  0
 12 14  1  0
 12 15  1  0
 13 16  1  0
 13 17  1  0
 15 18  1  0
 16 19  1  0
 16 20  1  0
 17 21  1  0
 18 22  1  0
 19 23  1  0
 22 24  1  0
 24 25  1  0
  6  7  1  0
 10 11  1  0
 14 16  1  0
 19 21  1  0
  3 26  1  0
  4 27  1  0
  4 28  1  0
  6 29  1  0
  6 30  1  0
  8 31  1  0
  8 32  1  0
 10 33  1  0
 10 34  1  0
 11 35  1  0
 12 36  1  0
 13 37  1  0
 14 38  1  0
 14 39  1  0
 15 40  1  0
 15 41  1  0
 17 42  1  0
 17 43  1  0
 18 44  1  0
 18 45  1  0
 19 46  1  0
 20 47  1  0
 20 48  1  0
 20 49  1  0
 21 50  1  0
 21 51  1  0
 22 52  1  0
 22 53  1  0
 23 54  1  0
 24 55  1  0
 24 56  1  0
 25 57  1  0
 25 58  1  0
 25 59  1  0
M  END
> <Name>
CHEMBL184313

> <IC50 nM>
125

> <Molecule_ChEMBL_ID>
CHEMBL184313

> <Smiles>
CCCCC[C@H]1C[C@@]2(C)C(CC[C@@H]2O)C2CCC3=CC(=O)CCC3=C21

$$$$
CHEMBL483096
  SciTegic08162514323D

 55 58  0  0  1  0            999 V2000
   -1.4300    1.2720   -0.8610 F   0  0
   -1.2360    0.5740    0.3160 C   0  0  2  0  0  0
   -2.6580    0.3480    0.9260 C   0  0  2  0  0  0
   -0.2600    1.4840    1.1230 C   0  0  1  0  0  0
   -0.5680   -0.7990   -0.0100 C   0  0  2  0  0  0
   -3.5290   -0.3050   -0.1540 C   0  0
   -3.2950    1.6150    1.4840 C   0  0
   -2.6040   -0.6310    2.1080 C   0  0
   -0.0960    0.9980    2.4420 O   0  0
    1.1270    1.6170    0.4380 C   0  0
    0.7270   -0.5370   -0.7990 C   0  0  1  0  0  0
   -1.5250   -1.8240   -0.6660 C   0  0
   -4.8480   -0.0350   -0.2640 C   0  0
   -2.8730   -1.2540   -1.1390 C   0  0
   -4.6080    1.8890    1.3380 C   0  0
    1.7400    0.2540    0.0530 C   0  0  1  0  0  0
    1.5510   -1.7380   -1.2600 C   0  0
   -5.4790    1.0000    0.5610 C   0  0
    2.9710    0.2520   -0.8870 C   0  0  1  0  0  0
    2.1350   -0.5290    1.3160 C   0  0
    2.9960   -1.2230   -1.3610 C   0  0  2  0  0  0
   -6.6800    1.1290    0.5860 O   0  0
    2.7540    1.1170   -1.9920 O   0  0
    4.2580    0.6970   -0.2340 C   0  0
    3.5920   -1.4630   -2.7500 C   0  0
    5.1700   -0.0780   -0.0640 O   0  0
    4.3770    1.9980    0.1640 N   0  0
   -0.6740    2.4860    1.2250 H   0  0
   -0.2790   -1.2580    0.9360 H   0  0
   -2.6910    2.3280    2.0250 H   0  0
   -3.6000   -0.9020    2.4570 H   0  0
   -2.0650   -0.1910    2.9470 H   0  0
   -2.0880   -1.5490    1.8240 H   0  0
   -0.6580    1.5390    3.0180 H   0  0
    0.9960    2.2250   -0.4570 H   0  0
    1.8160    2.1780    1.0700 H   0  0
    0.4690    0.0250   -1.6860 H   0  0
   -1.7380   -2.6070    0.0630 H   0  0
   -1.0430   -2.3360   -1.4980 H   0  0
   -5.4490   -0.5760   -0.9800 H   0  0
   -2.7190   -0.7190   -2.0760 H   0  0
   -3.5510   -2.0760   -1.3690 H   0  0
   -5.0220    2.7750    1.7970 H   0  0
    1.4900   -2.5390   -0.5350 H   0  0
    1.1780   -2.1290   -2.1950 H   0  0
    1.2680   -0.7660    1.9340 H   0  0
    2.8320    0.0470    1.9260 H   0  0
    2.6210   -1.4690    1.0510 H   0  0
    3.5880   -1.8010   -0.6620 H   0  0
    3.5430    1.0680   -2.5550 H   0  0
    3.6640   -2.5310   -2.9590 H   0  0
    2.9800   -0.9900   -3.5180 H   0  0
    4.5960   -1.0430   -2.8180 H   0  0
    5.2030    2.3400    0.6110 H   0  0
    3.6250    2.6430    0.0100 H   0  0
  2  1  1  0
  2  3  1  0
  2  4  1  0
  2  5  1  0
  3  6  1  0
  3  7  1  0
  3  8  1  0
  4  9  1  0
  4 10  1  0
  5 11  1  0
  5 12  1  0
  6 13  2  0
  6 14  1  0
  7 15  2  0
 10 16  1  0
 11 17  1  0
 13 18  1  0
 16 19  1  0
 16 20  1  0
 17 21  1  0
 18 22  2  0
 19 23  1  0
 19 24  1  0
 21 25  1  0
 24 26  2  0
 24 27  1  0
 11 16  1  0
 12 14  1  0
 15 18  1  0
 19 21  1  0
  4 28  1  0
  5 29  1  0
  7 30  1  0
  8 31  1  0
  8 32  1  0
  8 33  1  0
  9 34  1  0
 10 35  1  0
 10 36  1  0
 11 37  1  0
 12 38  1  0
 12 39  1  0
 13 40  1  0
 14 41  1  0
 14 42  1  0
 15 43  1  0
 17 44  1  0
 17 45  1  0
 20 46  1  0
 20 47  1  0
 20 48  1  0
 21 49  1  0
 23 50  1  0
 25 51  1  0
 25 52  1  0
 25 53  1  0
 27 54  1  0
 27 55  1  0
M  END
> <Name>
CHEMBL483096

> <IC50 nM>
600

> <Molecule_ChEMBL_ID>
CHEMBL483096

> <Smiles>
C[C@@H]1C[C@H]2[C@@H]3CCC4=CC(=O)C=C[C@]4(C)[C@@]3(F)[C@@H](O)C[C@]2(C)[C@@]1(O)C(N)=O

$$$$
CHEMBL457036
  SciTegic08162514323D

 60 63  0  0  1  0            999 V2000
   -2.9630   -0.5020   -1.7870 O   0  0
   -1.9140   -0.2640   -0.9880 C   0  0
   -3.1350    0.3280   -2.9260 C   0  0
   -1.7070   -1.0630    0.1580 C   0  0
   -1.0200    0.7870   -1.2890 C   0  0
   -4.3480   -0.1020   -3.6740 C   0  0
   -0.6000   -0.8130    1.0060 C   0  0
    0.0840    1.0430   -0.4450 C   0  0
   -5.6430    0.1190   -3.1480 C   0  0
   -4.2130   -0.7340   -4.9220 C   0  0
    0.3110    0.2440    0.7110 C   0  0
   -0.3810   -1.6410    2.2190 C   0  0
   -6.7580   -0.2730   -3.8300 N   0  0
   -5.8170    0.7870   -1.8300 C   0  0
   -5.3670   -1.1330   -5.6130 C   0  0
    1.4670    0.4570    1.6410 C   0  0  1  0  0  0
    1.1030   -1.9820    2.4590 C   0  0
   -6.6330   -0.8890   -5.0430 C   0  0
    2.1170   -0.9280    1.9390 C   0  0  2  0  0  0
    2.5610    1.4060    1.0680 C   0  0
    0.9240    1.0800    2.9340 C   0  0
    3.3460   -0.8160    2.8670 C   0  0
    3.7810    1.5330    1.9980 C   0  0
   -0.0390    2.2380    2.6720 C   0  0
    4.4140    0.1660    2.3340 C   0  0  1  0  0  0
    5.3770    0.3610    3.3500 O   0  0
    5.1040   -0.3930    1.1640 C   0  0
    5.6540   -0.8460    0.2110 C   0  0
    6.3200   -1.4000   -0.9630 C   0  0
   -2.2580    0.2170   -3.5650 H   0  0
   -3.2620    1.3550   -2.5860 H   0  0
   -2.3950   -1.8630    0.3830 H   0  0
   -1.1820    1.3970   -2.1640 H   0  0
    0.7420    1.8570   -0.7030 H   0  0
   -3.2340   -0.9140   -5.3460 H   0  0
   -0.7700   -1.0800    3.0700 H   0  0
   -0.9650   -2.5610    2.1800 H   0  0
   -6.8560    0.9260   -1.5310 H   0  0
   -5.3420    1.7680   -1.8550 H   0  0
   -5.3220    0.1970   -1.0570 H   0  0
   -5.2870   -1.6210   -6.5720 H   0  0
    1.3320   -2.9360    1.9790 H   0  0
    1.2440   -2.1560    3.5250 H   0  0
   -7.5220   -1.1950   -5.5720 H   0  0
    2.4820   -1.3140    0.9840 H   0  0
    2.1480    2.4040    0.9100 H   0  0
    2.8960    1.0550    0.0920 H   0  0
    0.4550    0.3220    3.5610 H   0  0
    1.7420    1.4000    3.5800 H   0  0
    3.7770   -1.8090    3.0220 H   0  0
    3.0040   -0.4880    3.8500 H   0  0
    4.5160    2.2050    1.5470 H   0  0
    3.4610    2.0250    2.9200 H   0  0
   -0.3090    2.7340    3.6060 H   0  0
    0.4080    2.9670    1.9960 H   0  0
   -0.9590    1.8770    2.2110 H   0  0
    5.9470    1.0920    3.0640 H   0  0
    5.6250   -2.0160   -1.5330 H   0  0
    7.1660   -2.0200   -0.6600 H   0  0
    6.6880   -0.6000   -1.6050 H   0  0
  1  2  1  0
  1  3  1  0
  2  4  2  0
  2  5  1  0
  3  6  1  0
  4  7  1  0
  5  8  2  0
  6  9  2  0
  6 10  1  0
  7 11  2  0
  7 12  1  0
  9 13  1  0
  9 14  1  0
 10 15  2  0
 11 16  1  0
 12 17  1  0
 13 18  2  0
 16 19  1  0
 16 20  1  0
 16 21  1  0
 19 22  1  0
 20 23  1  0
 21 24  1  0
 22 25  1  0
 25 26  1  0
 25 27  1  0
 27 28  3  0
 28 29  1  0
  8 11  1  0
 15 18  1  0
 17 19  1  0
 23 25  1  0
  3 30  1  0
  3 31  1  0
  4 32  1  0
  5 33  1  0
  8 34  1  0
 10 35  1  0
 12 36  1  0
 12 37  1  0
 14 38  1  0
 14 39  1  0
 14 40  1  0
 15 41  1  0
 17 42  1  0
 17 43  1  0
 18 44  1  0
 19 45  1  0
 20 46  1  0
 20 47  1  0
 21 48  1  0
 21 49  1  0
 22 50  1  0
 22 51  1  0
 23 52  1  0
 23 53  1  0
 24 54  1  0
 24 55  1  0
 24 56  1  0
 26 57  1  0
 29 58  1  0
 29 59  1  0
 29 60  1  0
M  END
> <Name>
CHEMBL457036

> <IC50 nM>
6.3

> <Molecule_ChEMBL_ID>
CHEMBL457036

> <Smiles>
CC#C[C@@]1(O)CC[C@@]2(CC)c3ccc(OCc4cccnc4C)cc3CC[C@@H]2C1

$$$$
CHEMBL3126949
  SciTegic08162514323D

 49 51  0  0  1  0            999 V2000
    5.8670   -0.2810   -1.8090 F   0  0
    5.1330   -0.1230   -0.7110 C   0  0
    3.8180    0.3690   -0.8070 C   0  0
    5.6700   -0.4490    0.5470 C   0  0
    3.0410    0.5370    0.3530 C   0  0
    4.8970   -0.2810    1.7070 C   0  0
    3.5820    0.2110    1.6130 C   0  0
    1.6520    1.0590    0.2340 C   0  0
    2.7750    0.3810    2.8530 C   0  0
    1.0060   -0.3220    0.3260 C   0  0
    1.4200    1.7300   -1.1190 C   0  0
    1.2870    1.9610    1.4120 C   0  0
   -0.5180   -0.2710    0.1890 C   0  0  2  0  0  0
   -0.9450    1.0310    0.5170 O   0  0
   -1.0820   -1.2360    1.2320 C   0  0
   -0.9940   -0.5880   -1.2290 C   0  0
   -0.7500   -2.5230    0.8890 F   0  0
   -2.4450   -1.1130    1.2790 F   0  0
   -0.5530   -0.9410    2.4630 F   0  0
   -2.5060   -0.6110   -1.3070 C   0  0
   -3.2640   -1.7770   -1.4360 N   0  0
   -3.4060    0.4590   -1.2680 C   0  0
   -4.5800   -1.3650   -1.4690 C   0  0
   -4.6930    0.0180   -1.3650 C   0  0
   -5.7930   -2.0800   -1.5880 C   0  0
   -5.9060    0.6910   -1.3730 N   0  0
   -7.0370   -1.4730   -1.6020 N   0  0
   -7.0630   -0.0820   -1.4920 C   0  0
    3.4080    0.6190   -1.7740 H   0  0
    6.6800   -0.8260    0.6250 H   0  0
    5.3170   -0.5330    2.6700 H   0  0
    2.7170    1.4390    3.1050 H   0  0
    1.7950   -0.0740    2.7150 H   0  0
    3.2680   -0.1310    3.6800 H   0  0
    1.2930   -0.8220    1.2500 H   0  0
    1.4360   -1.0000   -0.4120 H   0  0
    2.2190    2.4300   -1.3690 H   0  0
    0.4810    2.2850   -1.1170 H   0  0
    1.3670    0.9880   -1.9160 H   0  0
    0.5550    2.7190    1.1330 H   0  0
    2.1700    2.4770    1.7910 H   0  0
    0.8670    1.3770    2.2300 H   0  0
   -1.1720    1.4770   -0.3150 H   0  0
   -0.5980   -1.5470   -1.5630 H   0  0
   -0.6050    0.1430   -1.9380 H   0  0
   -2.9240   -2.7090   -1.4900 H   0  0
   -3.1150    1.4980   -1.1720 H   0  0
   -5.7520   -3.1560   -1.6720 H   0  0
   -8.0200    0.4200   -1.5000 H   0  0
  1  2  1  0
  2  3  2  0
  2  4  1  0
  3  5  1  0
  4  6  2  0
  5  7  2  0
  5  8  1  0
  7  9  1  0
  8 10  1  0
  8 11  1  0
  8 12  1  0
 10 13  1  0
 13 14  1  0
 13 15  1  0
 13 16  1  0
 15 17  1  0
 15 18  1  0
 15 19  1  0
 16 20  1  0
 20 21  1  0
 20 22  2  0
 21 23  1  0
 22 24  1  0
 23 25  1  0
 24 26  1  0
 25 27  2  0
 26 28  2  0
  6  7  1  0
 23 24  2  0
 27 28  1  0
  3 29  1  0
  4 30  1  0
  6 31  1  0
  9 32  1  0
  9 33  1  0
  9 34  1  0
 10 35  1  0
 10 36  1  0
 11 37  1  0
 11 38  1  0
 11 39  1  0
 12 40  1  0
 12 41  1  0
 12 42  1  0
 14 43  1  0
 16 44  1  0
 16 45  1  0
 21 46  1  0
 22 47  1  0
 25 48  1  0
 28 49  1  0
M  END
> <Name>
CHEMBL3126949

> <IC50 nM>
13

> <Molecule_ChEMBL_ID>
CHEMBL3126949

> <Smiles>
Cc1ccc(F)cc1C(C)(C)C[C@@](O)(Cc1cc2ncncc2[nH]1)C(F)(F)F

$$$$
CHEMBL3126951
  SciTegic08162514323D

 49 51  0  0  1  0            999 V2000
    6.3220    0.5000   -1.4860 F   0  0
    5.3380    0.5530   -0.5920 C   0  0
    4.0200    0.8030   -1.0120 C   0  0
    5.6170    0.3570    0.7720 C   0  0
    2.9770    0.8570   -0.0680 C   0  0
    4.5760    0.4120    1.7150 C   0  0
    3.2580    0.6620    1.2990 C   0  0
    1.5880    1.1230   -0.5290 C   0  0
    2.1680    0.7150    2.3130 C   0  0
    1.1640   -0.3460   -0.4650 C   0  0
    1.5630    1.6820   -1.9530 C   0  0
    0.8240    2.0020    0.4630 C   0  0
   -0.3440   -0.5330   -0.6310 C   0  0  1  0  0  0
   -0.8950    0.6890   -1.0640 O   0  0
   -0.5350   -1.5670   -1.7420 C   0  0
   -1.0350   -0.9340    0.6740 C   0  0
   -1.8730   -1.7360   -1.9820 F   0  0
    0.0160   -2.7600   -1.3530 F   0  0
    0.0820   -1.1270   -2.8850 F   0  0
   -2.5410   -0.9470    0.5120 C   0  0
   -3.2990   -2.1450    0.4060 N   0  0
   -3.4220    0.1540    0.4430 C   0  0
   -4.6230   -1.7620    0.2760 C   0  0
   -4.6470   -0.3930    0.3010 C   0  0
   -5.8540   -2.4470    0.1310 C   0  0
   -5.9060    0.2500    0.1820 C   0  0
   -7.0780   -1.7970    0.0160 N   0  0
   -7.1040   -0.4430    0.0410 N   0  0
    3.8090    0.9510   -2.0600 H   0  0
    6.6270    0.1640    1.0980 H   0  0
    4.7990    0.2600    2.7620 H   0  0
    1.9000    1.7540    2.5020 H   0  0
    1.3240    0.1170    1.9710 H   0  0
    2.5240    0.2850    3.2500 H   0  0
    1.5100   -0.8050    0.4630 H   0  0
    1.7090   -0.9360   -1.1990 H   0  0
    2.3380    2.4340   -2.1070 H   0  0
    0.6020    2.1440   -2.1680 H   0  0
    1.7210    0.8850   -2.6820 H   0  0
    0.0840    2.6270   -0.0370 H   0  0
    1.5060    2.6580    1.0000 H   0  0
    0.3010    1.3890    1.1970 H   0  0
   -1.7500    0.4880   -1.4760 H   0  0
   -0.7620   -0.2520    1.4790 H   0  0
   -0.6970   -1.9160    1.0040 H   0  0
   -2.9490   -3.0740    0.4220 H   0  0
   -3.1640    1.2050    0.4920 H   0  0
   -5.8440   -3.5280    0.1090 H   0  0
   -5.9450    1.3300    0.1990 H   0  0
  1  2  1  0
  2  3  2  0
  2  4  1  0
  3  5  1  0
  4  6  2  0
  5  7  2  0
  5  8  1  0
  7  9  1  0
  8 10  1  0
  8 11  1  0
  8 12  1  0
 10 13  1  0
 13 14  1  0
 13 15  1  0
 13 16  1  0
 15 17  1  0
 15 18  1  0
 15 19  1  0
 16 20  1  0
 20 21  1  0
 20 22  2  0
 21 23  1  0
 22 24  1  0
 23 25  1  0
 24 26  1  0
 25 27  2  0
 26 28  2  0
  6  7  1  0
 23 24  2  0
 27 28  1  0
  3 29  1  0
  4 30  1  0
  6 31  1  0
  9 32  1  0
  9 33  1  0
  9 34  1  0
 10 35  1  0
 10 36  1  0
 11 37  1  0
 11 38  1  0
 11 39  1  0
 12 40  1  0
 12 41  1  0
 12 42  1  0
 14 43  1  0
 16 44  1  0
 16 45  1  0
 21 46  1  0
 22 47  1  0
 25 48  1  0
 26 49  1  0
M  END
> <Name>
CHEMBL3126951

> <IC50 nM>
5

> <Molecule_ChEMBL_ID>
CHEMBL3126951

> <Smiles>
Cc1ccc(F)cc1C(C)(C)CC(O)(Cc1cc2cnncc2[nH]1)C(F)(F)F

$$$$
CHEMBL2419306
  SciTegic08162514323D

 39 42  0  0  1  0            999 V2000
   -1.1130   -3.8650   -3.7190 F   0  0
   -0.4100   -3.2730   -2.7560 C   0  0
   -0.3030   -1.8710   -2.7230 C   0  0
    0.2230   -4.0490   -1.7680 C   0  0
    0.4380   -1.2460   -1.7050 C   0  0
    0.9630   -3.4240   -0.7500 C   0  0
    1.0720   -2.0210   -0.7190 C   0  0
    1.8610   -1.3550    0.3650 C   0  0
    3.0610   -1.8960    0.9880 C   0  0
    1.6000   -0.1760    0.9320 C   0  0
    3.5570   -2.9570    0.6910 O   0  0
    3.5160   -1.0490    1.9200 O   0  0
    0.4690    0.7250    0.6170 C   0  0
    2.6580    0.1060    1.9710 C   0  0  1  0  0  0
   -0.8570    0.2360    0.6800 C   0  0
    0.7210    2.0680    0.2540 C   0  0
    3.4770    1.3580    1.6780 C   0  0
   -1.9470    1.0980    0.3830 C   0  0
   -0.3590    2.9300   -0.0390 C   0  0
   -3.2210    0.6390    0.4180 N   0  0
   -1.6890    2.4550    0.0330 C   0  0
   -4.2950    1.4900    0.2890 C   0  0
   -2.7050    3.2990   -0.2460 O   0  0
   -5.4220    1.0550    0.2850 O   0  0
   -4.0450    2.9810    0.1580 C   0  0
   -0.7870   -1.2710   -3.4810 H   0  0
    0.1430   -5.1250   -1.7890 H   0  0
    0.5160   -0.1680   -1.6890 H   0  0
    1.4470   -4.0270    0.0040 H   0  0
    2.2150    0.1560    2.9550 H   0  0
   -1.0330   -0.7950    0.9550 H   0  0
    1.7340    2.4420    0.2010 H   0  0
    4.3890    1.3690    2.2750 H   0  0
    3.7420    1.4060    0.6210 H   0  0
    2.9080    2.2560    1.9200 H   0  0
   -0.1640    3.9570   -0.3180 H   0  0
   -3.3980   -0.3400    0.5350 H   0  0
   -4.7360    3.4300   -0.5530 H   0  0
   -4.2230    3.4530    1.1250 H   0  0
  1  2  1  0
  2  3  2  0
  2  4  1  0
  3  5  1  0
  4  6  2  0
  5  7  2  0
  7  8  1  0
  8  9  1  0
  8 10  2  0
  9 11  2  0
  9 12  1  0
 10 13  1  0
 10 14  1  0
 13 15  2  0
 13 16  1  0
 14 17  1  0
 15 18  1  0
 16 19  2  0
 18 20  1  0
 18 21  2  0
 20 22  1  0
 21 23  1  0
 22 24  2  0
 22 25  1  0
  6  7  1  0
 12 14  1  0
 19 21  1  0
 23 25  1  0
  3 26  1  0
  4 27  1  0
  5 28  1  0
  6 29  1  0
 14 30  1  0
 15 31  1  0
 16 32  1  0
 17 33  1  0
 17 34  1  0
 17 35  1  0
 19 36  1  0
 20 37  1  0
 25 38  1  0
 25 39  1  0
M  END
> <Name>
CHEMBL2419306

> <IC50 nM>
3800

> <Molecule_ChEMBL_ID>
CHEMBL2419306

> <Smiles>
CC1OC(=O)C(c2ccc(F)cc2)=C1c1ccc2c(c1)NC(=O)CO2

$$$$
CHEMBL2419298
  SciTegic08162514323D

 40 43  0  0  1  0            999 V2000
   -1.1000   -3.6050   -4.0220 F   0  0
   -0.4240   -3.0720   -3.0060 C   0  0
   -0.3120   -1.6760   -2.8910 C   0  0
    0.1820   -3.9040   -2.0490 C   0  0
    0.4000   -1.1110   -1.8180 C   0  0
    0.8970   -3.3420   -0.9770 C   0  0
    1.0060   -1.9450   -0.8610 C   0  0
    1.7680   -1.3460    0.2810 C   0  0
    2.9470   -1.9430    0.8910 C   0  0
    1.4820   -0.1910    0.9040 C   0  0
    3.4900   -2.9820    0.5940 O   0  0
    3.3790   -1.0980    1.9220 N   0  0
    0.3540    0.7090    0.5880 C   0  0
    2.4940    0.0740    2.0000 C   0  0  1  0  0  0
   -0.9730    0.2210    0.6520 C   0  0
    0.6060    2.0530    0.2270 C   0  0
    3.2600    1.3770    1.7910 C   0  0
   -2.0620    1.0820    0.3530 C   0  0
   -0.4750    2.9160   -0.0680 C   0  0
   -3.3360    0.6230    0.3890 N   0  0
   -1.8070    2.4400    0.0040 C   0  0
   -4.4100    1.4750    0.2600 C   0  0
   -2.8220    3.2830   -0.2750 O   0  0
   -5.5390    1.0390    0.2580 O   0  0
   -4.1600    2.9670    0.1290 C   0  0
   -0.7770   -1.0310   -3.6230 H   0  0
    0.1000   -4.9790   -2.1330 H   0  0
    0.4810   -0.0370   -1.7380 H   0  0
    1.3570   -3.9900   -0.2460 H   0  0
    4.1680   -1.2640    2.5140 H   0  0
    2.0000    0.0820    2.9610 H   0  0
   -1.1480   -0.8110    0.9260 H   0  0
    1.6170    2.4260    0.1720 H   0  0
    4.1250    1.4240    2.4510 H   0  0
    3.5960    1.4650    0.7580 H   0  0
    2.6250    2.2340    2.0120 H   0  0
   -0.2810    3.9420   -0.3480 H   0  0
   -3.5160   -0.3550    0.5060 H   0  0
   -4.8540    3.4140   -0.5820 H   0  0
   -4.3380    3.4380    1.0980 H   0  0
  1  2  1  0
  2  3  2  0
  2  4  1  0
  3  5  1  0
  4  6  2  0
  5  7  2  0
  7  8  1  0
  8  9  1  0
  8 10  2  0
  9 11  2  0
  9 12  1  0
 10 13  1  0
 10 14  1  0
 13 15  2  0
 13 16  1  0
 14 17  1  0
 15 18  1  0
 16 19  2  0
 18 20  1  0
 18 21  2  0
 20 22  1  0
 21 23  1  0
 22 24  2  0
 22 25  1  0
  6  7  1  0
 12 14  1  0
 19 21  1  0
 23 25  1  0
  3 26  1  0
  4 27  1  0
  5 28  1  0
  6 29  1  0
 12 30  1  0
 14 31  1  0
 15 32  1  0
 16 33  1  0
 17 34  1  0
 17 35  1  0
 17 36  1  0
 19 37  1  0
 20 38  1  0
 25 39  1  0
 25 40  1  0
M  END
> <Name>
CHEMBL2419298

> <IC50 nM>
9100

> <Molecule_ChEMBL_ID>
CHEMBL2419298

> <Smiles>
CC1NC(=O)C(c2ccc(F)cc2)=C1c1ccc2c(c1)NC(=O)CO2

$$$$
CHEMBL383890
  SciTegic08162514323D

 69 73  0  0  1  0            999 V2000
   -1.5220   -3.5940   -0.0200 F   0  0
   -0.3400   -3.1990    0.5510 C   0  0
   -0.4020   -3.3860    1.9080 F   0  0
    0.6880   -3.9430    0.0340 F   0  0
   -0.0990   -1.7190    0.2510 C   0  0  3  0  0  0
   -0.1240   -1.5420   -1.1470 O   0  0
   -1.2580   -0.9840    0.8700 C   0  0
    1.2510   -1.2240    0.7710 C   0  0
   -1.1310   -0.3900    1.9150 O   0  0
   -2.4630   -1.0000    0.2280 N   0  0
    1.7770   -0.0080   -0.0080 C   0  0  3  0  0  0
   -3.4940   -0.2990    0.7200 C   0  0
    2.0430   -0.3680   -1.4390 C   0  0
    3.0990    0.4400    0.6300 C   0  0
    0.7380    1.1260    0.1350 C   0  0
   -4.8040   -0.8460    0.7060 C   0  0
   -3.2850    0.9990    1.2600 C   0  0
    1.6440    0.4840   -2.5180 C   0  0
    2.7220   -1.5820   -1.7380 C   0  0
    4.2680   -0.4470    0.1650 C   0  0
    3.3800    1.9240    0.3380 C   0  0
    1.0220    2.2710   -0.8370 C   0  0
   -5.8910   -0.0990    1.2270 C   0  0
   -4.3690    1.7450    1.7810 C   0  0
    1.9240    0.1020   -3.8560 C   0  0
    0.9320    1.7680   -2.2830 C   0  0
    2.9920   -1.9510   -3.0740 C   0  0
    5.6090    0.0130    0.7560 C   0  0
    4.7220    2.3830    0.9290 C   0  0
   -5.6700    1.1880    1.7600 C   0  0
   -7.2830   -0.6370    1.2290 C   0  0
    2.5930   -1.1090   -4.1330 C   0  0
    5.8800    1.4940    0.4550 C   0  0
   -6.8520    1.9220    2.2930 C   0  0
   -8.2520    0.0680    1.7100 N   0  0
   -7.5930   -2.0050    0.6750 C   0  0
   -6.7570    3.0290    2.7710 O   0  0
   -8.1030    1.4060    2.2790 O   0  0
   -0.5010   -0.6650   -1.3180 H   0  0
    1.9840   -2.0300    0.7680 H   0  0
    1.1960   -1.0030    1.8370 H   0  0
   -2.5800   -1.5340   -0.6090 H   0  0
    2.9980    0.3240    1.7090 H   0  0
    0.7230    1.5000    1.1590 H   0  0
   -0.2660    0.7440   -0.0600 H   0  0
   -4.9760   -1.8330    0.2990 H   0  0
   -2.2960    1.4350    1.2800 H   0  0
    3.0410   -2.2390   -0.9420 H   0  0
    4.0820   -1.4850    0.4440 H   0  0
    4.3300   -0.4240   -0.9240 H   0  0
    2.5750    2.5420    0.7360 H   0  0
    3.3910    2.0860   -0.7410 H   0  0
    2.0120    2.6860   -0.6430 H   0  0
    0.3110    3.0830   -0.6820 H   0  0
   -4.1950    2.7300    2.1890 H   0  0
    1.6240    0.7390   -4.6750 H   0  0
   -0.1170    1.6230   -2.5450 H   0  0
    1.3140    2.5390   -2.9540 H   0  0
    3.5050   -2.8780   -3.2850 H   0  0
    6.4180   -0.6000    0.3570 H   0  0
    5.6050   -0.1440    1.8350 H   0  0
    4.6670    2.3590    2.0180 H   0  0
    4.9130    3.4200    0.6520 H   0  0
    2.7990   -1.3910   -5.1550 H   0  0
    6.8100    1.8080    0.9270 H   0  0
    6.0190    1.6240   -0.6190 H   0  0
   -8.6580   -2.2150    0.7810 H   0  0
   -7.2740   -2.0640   -0.3650 H   0  0
   -7.0470   -2.7640    1.2350 H   0  0
  1  2  1  0
  2  3  1  0
  2  4  1  0
  2  5  1  0
  5  6  1  0
  5  7  1  0
  5  8  1  0
  7  9  2  0
  7 10  1  0
  8 11  1  0
 10 12  1  0
 11 13  1  0
 11 14  1  0
 11 15  1  0
 12 16  2  0
 12 17  1  0
 13 18  2  0
 13 19  1  0
 14 20  1  0
 14 21  1  0
 15 22  1  0
 16 23  1  0
 17 24  2  0
 18 25  1  0
 18 26  1  0
 19 27  2  0
 20 28  1  0
 21 29  1  0
 23 30  2  0
 23 31  1  0
 25 32  2  0
 28 33  1  0
 30 34  1  0
 31 35  2  0
 31 36  1  0
 34 37  2  0
 34 38  1  0
 22 26  1  0
 24 30  1  0
 27 32  1  0
 29 33  1  0
 35 38  1  0
  6 39  1  0
  8 40  1  0
  8 41  1  0
 10 42  1  0
 14 43  1  0
 15 44  1  0
 15 45  1  0
 16 46  1  0
 17 47  1  0
 19 48  1  0
 20 49  1  0
 20 50  1  0
 21 51  1  0
 21 52  1  0
 22 53  1  0
 22 54  1  0
 24 55  1  0
 25 56  1  0
 26 57  1  0
 26 58  1  0
 27 59  1  0
 28 60  1  0
 28 61  1  0
 29 62  1  0
 29 63  1  0
 32 64  1  0
 33 65  1  0
 33 66  1  0
 36 67  1  0
 36 68  1  0
 36 69  1  0
M  END
> <Name>
CHEMBL383890

> <IC50 nM>
8.51

> <Molecule_ChEMBL_ID>
CHEMBL383890

> <Smiles>
Cc1noc(=O)c2ccc(NC(=O)C(O)(CC3(C4CCCCC4)CCCc4ccccc43)C(F)(F)F)cc12

$$$$
CHEMBL3126943
  SciTegic08162514323D

 49 51  0  0  1  0            999 V2000
   -1.9530   -1.4630   -2.0640 F   0  0
   -0.6000   -1.3180   -1.8930 C   0  0
   -0.0330   -2.5490   -1.6740 F   0  0
   -0.0530   -0.7560   -3.0160 F   0  0
   -0.3340   -0.4140   -0.6880 C   0  0  1  0  0  0
   -0.9020    0.8480   -0.9510 O   0  0
   -0.9470   -0.9550    0.6040 C   0  0
    1.1840   -0.2460   -0.5960 C   0  0
   -2.4590   -0.9780    0.5250 C   0  0
    1.6090    1.2170   -0.4790 C   0  0
   -3.2150   -2.1440    0.3960 N   0  0
   -3.3590    0.0920    0.5640 C   0  0
    3.0160    0.8930   -0.1150 C   0  0
    1.5290    1.9650   -1.8090 C   0  0
    0.8890    1.9510    0.6540 C   0  0
   -4.5310   -1.7340    0.3610 C   0  0
   -4.6470   -0.3490    0.4650 C   0  0
    3.3460    0.4940    1.1970 C   0  0
    4.0220    0.9880   -1.0940 C   0  0
   -5.7460   -2.4470    0.2440 C   0  0
   -5.8570    0.3220    0.4590 N   0  0
    4.6820    0.1920    1.5200 C   0  0
    2.2970    0.3870    2.2460 C   0  0
    5.3540    0.6860   -0.7660 C   0  0
   -6.9900   -1.8420    0.2300 N   0  0
   -7.0160   -0.4490    0.3400 C   0  0
    5.6840    0.2870    0.5410 C   0  0
   -1.7520    0.6930   -1.3910 H   0  0
   -0.6350   -0.3550    1.4590 H   0  0
   -0.5780   -1.9610    0.8140 H   0  0
    1.5860   -0.8340    0.2290 H   0  0
    1.6760   -0.7230   -1.4430 H   0  0
   -2.8750   -3.0760    0.3420 H   0  0
   -3.0680    1.1310    0.6600 H   0  0
    2.2970    2.7350   -1.8890 H   0  0
    0.5590    2.4490   -1.9220 H   0  0
    1.6580    1.2770   -2.6450 H   0  0
    0.1190    2.6230    0.2770 H   0  0
    1.5940    2.5430    1.2380 H   0  0
    0.4100    1.2420    1.3300 H   0  0
    3.7750    1.2930   -2.1000 H   0  0
   -5.7030   -3.5230    0.1600 H   0  0
    4.9430   -0.1150    2.5230 H   0  0
    2.0020    1.3870    2.5660 H   0  0
    1.4610   -0.1990    1.8670 H   0  0
    2.7030   -0.1330    3.1130 H   0  0
    6.1230    0.7600   -1.5200 H   0  0
   -7.9730    0.0530    0.3320 H   0  0
    6.7090    0.0550    0.7910 H   0  0
  1  2  1  0
  2  3  1  0
  2  4  1  0
  2  5  1  0
  5  6  1  0
  5  7  1  0
  5  8  1  0
  7  9  1  0
  8 10  1  0
  9 11  1  0
  9 12  2  0
 10 13  1  0
 10 14  1  0
 10 15  1  0
 11 16  1  0
 12 17  1  0
 13 18  2  0
 13 19  1  0
 16 20  1  0
 17 21  1  0
 18 22  1  0
 18 23  1  0
 19 24  2  0
 20 25  2  0
 21 26  2  0
 22 27  2  0
 16 17  2  0
 24 27  1  0
 25 26  1  0
  6 28  1  0
  7 29  1  0
  7 30  1  0
  8 31  1  0
  8 32  1  0
 11 33  1  0
 12 34  1  0
 14 35  1  0
 14 36  1  0
 14 37  1  0
 15 38  1  0
 15 39  1  0
 15 40  1  0
 19 41  1  0
 20 42  1  0
 22 43  1  0
 23 44  1  0
 23 45  1  0
 23 46  1  0
 24 47  1  0
 26 48  1  0
 27 49  1  0
M  END
> <Name>
CHEMBL3126943

> <IC50 nM>
13

> <Molecule_ChEMBL_ID>
CHEMBL3126943

> <Smiles>
Cc1ccccc1C(C)(C)CC(O)(Cc1cc2ncncc2[nH]1)C(F)(F)F

$$$$
CHEMBL3126939
  SciTegic08162514323D

 64 67  0  0  1  0            999 V2000
   -2.6210   -6.3130   -5.2150 S   0  0
   -3.6270   -7.2790   -4.8170 O   0  0
   -2.4630   -6.1820   -6.6530 O   0  0
   -1.0470   -6.7070   -4.4590 C   0  0
   -2.9730   -4.7150   -4.4890 C   0  0
   -0.0350   -5.5800   -4.7150 C   0  0
   -1.8110   -3.7460   -4.7400 C   0  0
   -0.5350   -4.2810   -4.1970 N   0  0
    0.1470   -3.6070   -3.2560 C   0  0
   -0.3630   -2.3890   -2.8030 N   0  0
    1.3360   -4.1520   -2.7700 N   0  0
    0.3630   -1.7170   -1.8320 C   0  0
    2.0120   -3.4300   -1.8010 C   0  0
    1.5570   -2.1910   -1.2950 C   0  0
    0.1500   -0.5310   -1.1900 C   0  0
    2.0720   -1.3320   -0.3460 N   0  0
    1.1740   -0.2660   -0.2760 C   0  0
    1.3440    0.9240    0.6440 C   0  0
    0.0940    1.8050    0.6480 C   0  0  2  0  0  0
   -1.0190    0.9900    0.9390 O   0  0
   -0.1500    2.4880   -0.6970 C   0  0
    0.1580    2.9160    1.6970 C   0  0
   -1.4590    2.3110   -1.0690 F   0  0
    0.6720    1.9380   -1.6450 F   0  0
    0.1150    3.8280   -0.5840 F   0  0
    0.5530    2.4000    3.0800 C   0  0
    0.0900    3.6230    3.7910 C   0  0
   -0.2480    1.1680    3.5020 C   0  0
    2.0630    2.2030    3.2280 C   0  0
    0.7320    4.8610    3.5880 C   0  0
   -1.0040    3.5390    4.6720 C   0  0
    0.2790    6.0060    4.2670 C   0  0
    1.8910    4.9730    2.6580 C   0  0
   -1.4550    4.6860    5.3500 C   0  0
   -0.8120    5.9180    5.1460 C   0  0
   -2.4880    4.6020    6.1840 F   0  0
   -1.1910   -6.8570   -3.3890 H   0  0
   -0.6820   -7.6490   -4.8710 H   0  0
   -3.8960   -4.3260   -4.9200 H   0  0
   -3.1450   -4.8380   -3.4180 H   0  0
    0.1450   -5.4810   -5.7850 H   0  0
    0.9240   -5.8380   -4.2620 H   0  0
   -2.0430   -2.7710   -4.3070 H   0  0
   -1.6890   -3.5840   -5.8130 H   0  0
    2.9340   -3.8380   -1.4120 H   0  0
   -0.6990    0.1170   -1.3650 H   0  0
    2.9080   -1.4490    0.1780 H   0  0
    1.5720    0.5740    1.6520 H   0  0
    2.2190    1.4980    0.3400 H   0  0
   -0.6760    0.1330    1.2400 H   0  0
    0.8320    3.7110    1.3750 H   0  0
   -0.7850    3.4590    1.7420 H   0  0
   -0.2520    1.0370    4.5840 H   0  0
    0.1720    0.2660    3.0570 H   0  0
   -1.2830    1.2500    3.1720 H   0  0
    2.5080    2.9550    3.8790 H   0  0
    2.5570    2.2660    2.2600 H   0  0
    2.2830    1.2230    3.6520 H   0  0
   -1.4980    2.5920    4.8300 H   0  0
    0.7680    6.9570    4.1150 H   0  0
    2.6760    5.5670    3.1270 H   0  0
    2.2270    3.9750    2.3790 H   0  0
    1.5800    5.4880    1.7500 H   0  0
   -1.1560    6.8030    5.6660 H   0  0
  1  2  2  0
  1  3  2  0
  1  4  1  0
  1  5  1  0
  4  6  1  0
  5  7  1  0
  6  8  1  0
  8  9  1  0
  9 10  2  0
  9 11  1  0
 10 12  1  0
 11 13  2  0
 12 14  2  0
 12 15  1  0
 14 16  1  0
 15 17  2  0
 17 18  1  0
 18 19  1  0
 19 20  1  0
 19 21  1  0
 19 22  1  0
 21 23  1  0
 21 24  1  0
 21 25  1  0
 22 26  1  0
 26 27  1  0
 26 28  1  0
 26 29  1  0
 27 30  2  0
 27 31  1  0
 30 32  1  0
 30 33  1  0
 31 34  2  0
 32 35  2  0
 34 36  1  0
  7  8  1  0
 13 14  1  0
 16 17  1  0
 34 35  1  0
  4 37  1  0
  4 38  1  0
  5 39  1  0
  5 40  1  0
  6 41  1  0
  6 42  1  0
  7 43  1  0
  7 44  1  0
 13 45  1  0
 15 46  1  0
 16 47  1  0
 18 48  1  0
 18 49  1  0
 20 50  1  0
 22 51  1  0
 22 52  1  0
 28 53  1  0
 28 54  1  0
 28 55  1  0
 29 56  1  0
 29 57  1  0
 29 58  1  0
 31 59  1  0
 32 60  1  0
 33 61  1  0
 33 62  1  0
 33 63  1  0
 35 64  1  0
M  END
> <Name>
CHEMBL3126939

> <IC50 nM>
8

> <Molecule_ChEMBL_ID>
CHEMBL3126939

> <Smiles>
Cc1ccc(F)cc1C(C)(C)CC(O)(Cc1cc2nc(N3CCS(=O)(=O)CC3)ncc2[nH]1)C(F)(F)F

$$$$
CHEMBL213621
  SciTegic08162514323D

 61 64  0  0  1  0            999 V2000
    2.9080    1.6720    2.6410 F   0  0
    1.7660    2.2010    2.0980 C   0  0
    0.9160    2.5820    3.1060 F   0  0
    2.0860    3.2950    1.3340 F   0  0
    1.0820    1.1500    1.2230 C   0  0  3  0  0  0
    1.9430    0.8420    0.1500 O   0  0
   -0.2400    1.6270    0.6840 C   0  0
    0.7770   -0.1410    1.9810 C   0  0
   -1.2810    1.1640    1.0920 O   0  0
   -0.2460    2.5940   -0.2810 N   0  0
    0.7660   -1.3770    1.0660 C   0  0  3  0  0  0
   -1.4100    3.0370   -0.7790 C   0  0
    2.0720   -2.1060    1.1390 C   0  0
   -0.4280   -2.2600    1.4880 C   0  0
    0.5590   -0.9060   -0.3790 C   0  0
   -2.1900    2.2030   -1.6230 C   0  0
   -1.8710    4.3440   -0.4690 C   0  0
    2.1370   -3.5350    1.2170 C   0  0
    3.2890   -1.3650    1.1110 C   0  0
   -0.3650   -3.6410    0.8380 C   0  0
   -0.4430   -1.7730   -1.1430 C   0  0
   -3.4200    2.6760   -2.1480 C   0  0
   -3.1000    4.8160   -0.9920 C   0  0
    3.3980   -4.1860    1.2560 C   0  0
    0.9100   -4.3730    1.2720 C   0  0
    4.5330   -2.0310    1.1600 C   0  0
   -3.8670    3.9770   -1.8320 C   0  0
   -4.2680    1.8320   -3.0410 C   0  0
    4.5940   -3.4380    1.2270 C   0  0
    5.7130   -1.2890    1.1390 N   0  3
   -5.1660    4.4140   -2.4140 C   0  0
   -5.3810    2.2930   -3.5040 N   0  0
   -3.8520    0.4340   -3.4220 C   0  0
    5.6090   -0.0960    0.9590 O   0  0
    6.7640   -1.9060    1.3050 O   0  5
   -5.6290    5.5120   -2.1950 O   0  0
   -5.9100    3.6250   -3.2210 O   0  0
    2.7560    1.3550    0.2790 H   0  0
    1.4790   -0.2790    2.8050 H   0  0
   -0.1620   -0.0570    2.5270 H   0  0
    0.6170    2.9730   -0.6130 H   0  0
   -1.3690   -1.7700    1.2320 H   0  0
   -0.4410   -2.3830    2.5740 H   0  0
    0.2600    0.1410   -0.4040 H   0  0
    1.5100   -0.8590   -0.9100 H   0  0
   -1.8500    1.2050   -1.8650 H   0  0
   -1.2930    4.9960    0.1720 H   0  0
    3.2730   -0.2870    1.0550 H   0  0
   -0.3910   -3.5410   -0.2480 H   0  0
   -1.2420   -4.2270    1.1130 H   0  0
   -0.9060   -1.2050   -1.9490 H   0  0
    0.0470   -2.6520   -1.5610 H   0  0
   -1.2380   -2.1170   -0.4800 H   0  0
   -3.4380    5.8130   -0.7460 H   0  0
    3.4490   -5.2620    1.3070 H   0  0
    0.7870   -4.7250    2.2970 H   0  0
    1.0370   -5.2640    0.6520 H   0  0
    5.5510   -3.9400    1.2560 H   0  0
   -4.5590   -0.0640   -4.0840 H   0  0
   -3.7460   -0.1780   -2.5250 H   0  0
   -2.8850    0.4590   -3.9240 H   0  0
  1  2  1  0
  2  3  1  0
  2  4  1  0
  2  5  1  0
  5  6  1  0
  5  7  1  0
  5  8  1  0
  7  9  2  0
  7 10  1  0
  8 11  1  0
 10 12  1  0
 11 13  1  0
 11 14  1  0
 11 15  1  0
 12 16  2  0
 12 17  1  0
 13 18  2  0
 13 19  1  0
 14 20  1  0
 15 21  1  0
 16 22  1  0
 17 23  2  0
 18 24  1  0
 18 25  1  0
 19 26  2  0
 22 27  2  0
 22 28  1  0
 24 29  2  0
 26 30  1  0
 27 31  1  0
 28 32  2  0
 28 33  1  0
 30 34  2  0
 30 35  1  0
 31 36  2  0
 31 37  1  0
 20 25  1  0
 23 27  1  0
 26 29  1  0
 32 37  1  0
  6 38  1  0
  8 39  1  0
  8 40  1  0
 10 41  1  0
 14 42  1  0
 14 43  1  0
 15 44  1  0
 15 45  1  0
 16 46  1  0
 17 47  1  0
 19 48  1  0
 20 49  1  0
 20 50  1  0
 21 51  1  0
 21 52  1  0
 21 53  1  0
 23 54  1  0
 24 55  1  0
 25 56  1  0
 25 57  1  0
 29 58  1  0
 33 59  1  0
 33 60  1  0
 33 61  1  0
M  CHG  2  30   1  35  -1
M  END
> <Name>
CHEMBL213621

> <IC50 nM>
6.31

> <Molecule_ChEMBL_ID>
CHEMBL213621

> <Smiles>
CCC1(CC(O)(C(=O)Nc2ccc3c(=O)onc(C)c3c2)C(F)(F)F)CCCc2ccc([N+](=O)[O-])cc21

$$$$
CHEMBL377176
  SciTegic08162514323D

 55 58  0  0  1  0            999 V2000
    0.4390    3.6660    1.3320 F   0  0
    1.0000    2.4180    1.4340 C   0  0
    2.0100    2.2930    0.5160 F   0  0
    1.5040    2.2440    2.6970 F   0  0
   -0.0680    1.3570    1.1640 C   0  0  3  0  0  0
   -1.0430    1.4430    2.1780 O   0  0
   -0.6860    1.7290   -0.1580 C   0  0
    0.4980   -0.0640    1.1640 C   0  0
   -0.2010    2.5960   -0.8480 O   0  0
   -1.8070    1.0660   -0.5680 N   0  0
    0.7150   -0.6130    2.5800 C   0  0  3  0  0  0
   -2.3770    1.3750   -1.7420 C   0  0
    2.0180   -1.3360    2.6530 C   0  0
   -0.4800   -1.4750    3.0260 C   0  0
   -1.5720    1.6210   -2.8870 C   0  0
   -3.7910    1.4610   -1.8490 C   0  0
    2.0840   -2.7620    2.7290 C   0  0
    3.2210   -0.5820    2.6370 C   0  0
   -0.4280   -2.8550    2.3690 C   0  0
   -2.1820    1.9490   -4.1230 C   0  0
   -4.4000    1.7870   -3.0840 C   0  0
    3.3560   -3.3930    2.7740 C   0  0
    0.8540   -3.6000    2.7780 C   0  0
    4.4770   -1.2270    2.6860 C   0  0
   -3.5880    2.0310   -4.2170 C   0  0
   -1.3730    2.2150   -5.3500 C   0  0
    3.4430   -4.7850    2.8420 N   0  3
    4.5470   -2.6350    2.7520 C   0  0
   -4.1660    2.3790   -5.5450 C   0  0
   -1.9570    2.5120   -6.4610 N   0  0
    0.1330    2.1470   -5.3220 C   0  0
    4.0160   -5.2540    3.8010 O   0  0
    2.9320   -5.4220    1.9220 O   0  5
   -5.3590    2.4690   -5.7210 O   0  0
   -3.4040    2.6150   -6.6390 O   0  0
   -1.4370    2.3280    2.1210 H   0  0
    1.4200   -0.1110    0.5860 H   0  0
   -0.1390   -0.7320    0.5860 H   0  0
   -2.2050    0.3500    0.0040 H   0  0
    0.7620    0.2420    3.2580 H   0  0
   -1.4200   -0.9770    2.7850 H   0  0
   -0.4690   -1.5940    4.1120 H   0  0
   -0.4960    1.5570   -2.8160 H   0  0
   -4.4220    1.2790   -0.9900 H   0  0
    3.1820    0.4960    2.5840 H   0  0
   -0.4690   -2.7480    1.2830 H   0  0
   -1.3030   -3.4410    2.6530 H   0  0
   -5.4770    1.8500   -3.1520 H   0  0
    0.7400   -3.9650    3.7990 H   0  0
    0.9710   -4.4790    2.1430 H   0  0
    5.3850   -0.6410    2.6740 H   0  0
    5.5080   -3.1270    2.7850 H   0  0
    0.5310    2.3440   -6.3180 H   0  0
    0.5230    2.8500   -4.5880 H   0  0
    0.4510    1.1470   -5.0290 H   0  0
  1  2  1  0
  2  3  1  0
  2  4  1  0
  2  5  1  0
  5  6  1  0
  5  7  1  0
  5  8  1  0
  7  9  2  0
  7 10  1  0
  8 11  1  0
 10 12  1  0
 11 13  1  0
 11 14  1  0
 12 15  2  0
 12 16  1  0
 13 17  2  0
 13 18  1  0
 14 19  1  0
 15 20  1  0
 16 21  2  0
 17 22  1  0
 17 23  1  0
 18 24  2  0
 20 25  2  0
 20 26  1  0
 22 27  1  0
 22 28  2  0
 25 29  1  0
 26 30  2  0
 26 31  1  0
 27 32  2  0
 27 33  1  0
 29 34  2  0
 29 35  1  0
 19 23  1  0
 21 25  1  0
 24 28  1  0
 30 35  1  0
  6 36  1  0
  8 37  1  0
  8 38  1  0
 10 39  1  0
 11 40  1  0
 14 41  1  0
 14 42  1  0
 15 43  1  0
 16 44  1  0
 18 45  1  0
 19 46  1  0
 19 47  1  0
 21 48  1  0
 23 49  1  0
 23 50  1  0
 24 51  1  0
 28 52  1  0
 31 53  1  0
 31 54  1  0
 31 55  1  0
M  CHG  2  27   1  33  -1
M  END
> <Name>
CHEMBL377176

> <IC50 nM>
12.59

> <Molecule_ChEMBL_ID>
CHEMBL377176

> <Smiles>
Cc1noc(=O)c2ccc(NC(=O)C(O)(CC3CCCc4c3cccc4[N+](=O)[O-])C(F)(F)F)cc12

$$$$
CHEMBL386289
  SciTegic08162514323D

 55 58  0  0  1  0            999 V2000
    0.2640    3.7310    1.3970 F   0  0
    0.9080    2.5200    1.4000 C   0  0
    1.8650    2.5100    0.4180 F   0  0
    1.5040    2.3240    2.6210 F   0  0
   -0.1000    1.4020    1.1410 C   0  0  3  0  0  0
   -1.0760    1.4430    2.1580 O   0  0
   -0.7400    1.7300   -0.1820 C   0  0
    0.5410    0.0140    1.1500 C   0  0
   -0.3010    2.6110   -0.8830 O   0  0
   -1.8320    1.0120   -0.5780 N   0  0
    0.7660   -0.5250    2.5680 C   0  0  3  0  0  0
   -2.4220    1.2830   -1.7520 C   0  0
    2.0660   -1.2520    2.6390 C   0  0
   -0.4300   -1.3750    3.0250 C   0  0
   -1.6370    1.5310   -2.9080 C   0  0
   -3.8380    1.3220   -1.8480 C   0  0
    2.1350   -2.6820    2.7170 C   0  0
    3.2620   -0.4920    2.6190 C   0  0
   -0.3930   -2.7480    2.3570 C   0  0
   -2.2660    1.8180   -4.1470 C   0  0
   -4.4690    1.6070   -3.0840 C   0  0
    3.4140   -3.3200    2.7750 C   0  0
    0.8850   -3.5020    2.7540 C   0  0
    4.5200   -1.1290    2.6760 C   0  0
   -3.6740    1.8550   -4.2290 C   0  0
   -1.4770    2.0880   -5.3830 C   0  0
    3.5330   -4.6560    2.8540 N   0  0
    4.5920   -2.5350    2.7520 C   0  0
   -4.2750    2.1600   -5.5570 C   0  0
   -2.0780    2.3480   -6.4940 N   0  0
    0.0310    2.0660   -5.3690 C   0  0
   -5.4730    2.2110   -5.7210 O   0  0
   -3.5290    2.4020   -6.6600 O   0  0
   -0.6330    1.7440    2.9670 H   0  0
    1.4750    0.0180    0.5860 H   0  0
   -0.0490   -0.6880    0.5610 H   0  0
   -2.1930    0.2830    0.0020 H   0  0
    0.8180    0.3360    3.2380 H   0  0
   -1.3690   -0.8690    2.7990 H   0  0
   -0.4060   -1.5000    4.1090 H   0  0
   -0.5570    1.5040   -2.8480 H   0  0
   -4.4570    1.1370   -0.9800 H   0  0
    3.2190    0.5860    2.5590 H   0  0
   -0.4370   -2.6330    1.2730 H   0  0
   -1.2700   -3.3320    2.6410 H   0  0
   -5.5470    1.6330   -3.1430 H   0  0
    0.7700   -3.8850    3.7680 H   0  0
    0.9820   -4.3730    2.1040 H   0  0
    5.4240   -0.5410    2.6580 H   0  0
    2.7360   -5.2580    2.9000 H   0  0
    4.4420   -5.0760    2.8650 H   0  0
    5.5680   -2.9980    2.7930 H   0  0
    0.4140    2.2580   -6.3710 H   0  0
    0.4060    2.7970   -4.6500 H   0  0
    0.3850    1.0840   -5.0590 H   0  0
  1  2  1  0
  2  3  1  0
  2  4  1  0
  2  5  1  0
  5  6  1  0
  5  7  1  0
  5  8  1  0
  7  9  2  0
  7 10  1  0
  8 11  1  0
 10 12  1  0
 11 13  1  0
 11 14  1  0
 12 15  2  0
 12 16  1  0
 13 17  2  0
 13 18  1  0
 14 19  1  0
 15 20  1  0
 16 21  2  0
 17 22  1  0
 17 23  1  0
 18 24  2  0
 20 25  2  0
 20 26  1  0
 22 27  1  0
 22 28  2  0
 25 29  1  0
 26 30  2  0
 26 31  1  0
 29 32  2  0
 29 33  1  0
 19 23  1  0
 21 25  1  0
 24 28  1  0
 30 33  1  0
  6 34  1  0
  8 35  1  0
  8 36  1  0
 10 37  1  0
 11 38  1  0
 14 39  1  0
 14 40  1  0
 15 41  1  0
 16 42  1  0
 18 43  1  0
 19 44  1  0
 19 45  1  0
 21 46  1  0
 23 47  1  0
 23 48  1  0
 24 49  1  0
 27 50  1  0
 27 51  1  0
 28 52  1  0
 31 53  1  0
 31 54  1  0
 31 55  1  0
M  END
> <Name>
CHEMBL386289

> <IC50 nM>
25.12

> <Molecule_ChEMBL_ID>
CHEMBL386289

> <Smiles>
Cc1noc(=O)c2ccc(NC(=O)C(O)(CC3CCCc4c(N)cccc43)C(F)(F)F)cc12

$$$$
CHEMBL235280
  SciTegic08162514323D

 57 59  0  0  1  0            999 V2000
   -3.1700   -5.7030    2.3280 F   0  0
   -2.1020   -5.1660    1.7420 C   0  0
   -2.2090   -3.9280    1.0840 C   0  0
   -0.8670   -5.8360    1.7790 C   0  0
   -1.0800   -3.3590    0.4650 C   0  0
    0.2580   -5.2680    1.1600 C   0  0
    0.1580   -4.0290    0.5020 C   0  0
   -1.2050   -2.0490   -0.2270 C   0  0
    1.2210   -3.5080   -0.0760 O   0  0
   -0.5760   -1.2560    0.9200 C   0  0
   -2.6680   -1.6760   -0.4710 C   0  0
   -0.3650   -2.0040   -1.5040 C   0  0
    2.4670   -4.1680    0.0980 C   0  0
   -0.7500    0.2560    0.7560 C   0  0  1  0  0  0
   -2.0940    0.5760    1.0310 O   0  0
    0.1270    0.9120    1.8220 C   0  0
   -0.4220    0.7380   -0.6560 C   0  0
    1.4470    0.6990    1.5230 F   0  0
   -0.1580    0.3670    3.0490 F   0  0
   -0.1230    2.2600    1.8530 F   0  0
   -0.2600    2.2030   -0.7070 C   0  0
    1.0230    2.8160   -0.7400 C   0  0
   -1.4220    3.0100   -0.7190 C   0  0
    1.1290    4.2460   -0.7870 C   0  0
    2.2070    2.0270   -0.7310 C   0  0
   -1.3180    4.4160   -0.7680 C   0  0
   -0.0510    5.0430   -0.8010 C   0  0
    2.4160    4.8540   -0.8170 C   0  0
    3.4770    2.6460   -0.7640 C   0  0
    0.0040    6.5160   -0.8520 C   0  0
    3.5800    4.0550   -0.8070 C   0  0
   -3.1580   -3.4120    1.0570 H   0  0
   -0.7810   -6.7870    2.2830 H   0  0
    1.2050   -5.7870    1.1890 H   0  0
    0.4770   -1.5120    1.0330 H   0  0
   -0.9730   -1.5880    1.8790 H   0  0
   -3.2170   -2.4820   -0.9570 H   0  0
   -2.7400   -0.7930   -1.1060 H   0  0
   -3.1700   -1.4510    0.4710 H   0  0
   -0.3240   -2.9770   -1.9980 H   0  0
    0.6580   -1.7010   -1.2830 H   0  0
   -0.7790   -1.2870   -2.2130 H   0  0
    3.2270   -3.6110   -0.4510 H   0  0
    2.6390   -4.2930    1.1660 H   0  0
    2.3930   -5.1600   -0.3460 H   0  0
   -2.5310    0.7340    0.1800 H   0  0
   -1.1990    0.4340   -1.3580 H   0  0
    0.4840    0.2600   -1.0270 H   0  0
   -2.4000    2.5510   -0.6930 H   0  0
    2.1620    0.9490   -0.6970 H   0  0
   -2.2190    5.0160   -0.7790 H   0  0
    2.5290    5.9260   -0.8480 H   0  0
    4.3710    2.0410   -0.7580 H   0  0
   -0.9730    7.0020   -0.8610 H   0  0
    0.5390    6.8300   -1.7480 H   0  0
    0.5530    6.8890    0.0120 H   0  0
    4.5550    4.5220   -0.8300 H   0  0
  1  2  1  0
  2  3  2  0
  2  4  1  0
  3  5  1  0
  4  6  2  0
  5  7  2  0
  5  8  1  0
  7  9  1  0
  8 10  1  0
  8 11  1  0
  8 12  1  0
  9 13  1  0
 10 14  1  0
 14 15  1  0
 14 16  1  0
 14 17  1  0
 16 18  1  0
 16 19  1  0
 16 20  1  0
 17 21  1  0
 21 22  2  0
 21 23  1  0
 22 24  1  0
 22 25  1  0
 23 26  2  0
 24 27  2  0
 24 28  1  0
 25 29  2  0
 27 30  1  0
 28 31  2  0
  6  7  1  0
 26 27  1  0
 29 31  1  0
  3 32  1  0
  4 33  1  0
  6 34  1  0
 10 35  1  0
 10 36  1  0
 11 37  1  0
 11 38  1  0
 11 39  1  0
 12 40  1  0
 12 41  1  0
 12 42  1  0
 13 43  1  0
 13 44  1  0
 13 45  1  0
 15 46  1  0
 17 47  1  0
 17 48  1  0
 23 49  1  0
 25 50  1  0
 26 51  1  0
 28 52  1  0
 29 53  1  0
 30 54  1  0
 30 55  1  0
 30 56  1  0
 31 57  1  0
M  END
> <Name>
CHEMBL235280

> <IC50 nM>
58

> <Molecule_ChEMBL_ID>
CHEMBL235280

> <Smiles>
COc1ccc(F)cc1C(C)(C)CC(O)(Cc1ccc(C)c2ccccc12)C(F)(F)F

$$$$
CHEMBL234988
  SciTegic08162514323D

 58 61  0  0  1  0            999 V2000
    0.6170    2.3460   -2.3810 Cl  0  0
    2.3360    2.3320   -2.4140 C   0  0
    3.0570    1.1330   -2.6070 C   0  0
    3.0330    3.5450   -2.2460 C   0  0
    4.4630    1.1580   -2.6290 C   0  0
    2.3510   -0.1820   -2.7950 C   0  0
    4.4370    3.5630   -2.2670 C   0  0
    5.1520    2.3690   -2.4590 C   0  0
    2.7930   -0.9650   -4.0550 C   0  0
    0.9280   -0.0590   -3.3920 C   0  0
    2.4140   -0.9940   -1.5060 C   0  0
    6.4820    2.3870   -2.4760 F   0  0
    1.3730   -0.8440   -4.6420 C   0  0
    1.9530   -0.1270   -0.3340 C   0  0  1  0  0  0
    1.7770   -0.9590    0.7890 O   0  0
    2.9670    0.9610    0.0310 C   0  0
    0.6310    0.5860   -0.6130 C   0  0
    2.4880    2.1820   -0.3690 F   0  0
    4.1560    0.7050   -0.5990 F   0  0
    3.1600    0.9690    1.3870 F   0  0
   -0.4510    0.0350    0.2170 N   0  0
   -1.7500    0.2770   -0.1270 C   0  0
   -2.0100    0.9380   -1.1050 O   0  0
   -2.8240   -0.2700    0.6940 C   0  0
   -2.8110   -0.4340    2.1000 C   0  0
   -4.0700   -0.7290    0.2190 C   0  0
   -4.0160   -0.9730    2.4200 N   0  0
   -1.6990   -0.0820    3.0040 N   0  0
   -4.7400   -1.1390    1.3110 N   0  0
   -4.4440   -1.3030    3.6660 C   0  0
   -4.2330   -0.4180    4.7420 C   0  0
   -5.1000   -2.5290    3.8870 C   0  0
   -4.6760   -0.7600    6.0320 C   0  0
   -5.5410   -2.8670    5.1780 C   0  0
   -5.3300   -1.9840    6.2500 C   0  0
    2.4980    4.4730   -2.0990 H   0  0
    5.0160    0.2400   -2.7750 H   0  0
    4.9630    4.4980   -2.1390 H   0  0
    3.5780   -0.5100   -4.6640 H   0  0
    3.1250   -1.9880   -3.8790 H   0  0
    0.1350   -0.5350   -2.8160 H   0  0
    0.5680    0.9510   -3.5940 H   0  0
    3.4240   -1.3670   -1.3340 H   0  0
    1.8030   -1.8930   -1.5840 H   0  0
    0.8550   -1.7890   -4.8070 H   0  0
    1.3050   -0.2970   -5.5820 H   0  0
    1.3480   -1.7720    0.4790 H   0  0
    0.7210    1.6560   -0.4200 H   0  0
    0.3570    0.4960   -1.6640 H   0  0
   -0.2440   -0.5140    1.0280 H   0  0
   -4.4490   -0.7620   -0.7950 H   0  0
   -1.0610    0.6460    2.7520 H   0  0
   -1.5820   -0.5740    3.8670 H   0  0
   -3.7310    0.5270    4.5960 H   0  0
   -5.2720   -3.2210    3.0760 H   0  0
   -4.5140   -0.0820    6.8560 H   0  0
   -6.0450   -3.8090    5.3460 H   0  0
   -5.6700   -2.2460    7.2410 H   0  0
  1  2  1  0
  2  3  2  0
  2  4  1  0
  3  5  1  0
  3  6  1  0
  4  7  2  0
  5  8  2  0
  6  9  1  0
  6 10  1  0
  6 11  1  0
  8 12  1  0
  9 13  1  0
 11 14  1  0
 14 15  1  0
 14 16  1  0
 14 17  1  0
 16 18  1  0
 16 19  1  0
 16 20  1  0
 17 21  1  0
 21 22  1  0
 22 23  2  0
 22 24  1  0
 24 25  2  0
 24 26  1  0
 25 27  1  0
 25 28  1  0
 26 29  2  0
 27 30  1  0
 30 31  2  0
 30 32  1  0
 31 33  1  0
 32 34  2  0
 33 35  2  0
  7  8  1  0
 10 13  1  0
 27 29  1  0
 34 35  1  0
  4 36  1  0
  5 37  1  0
  7 38  1  0
  9 39  1  0
  9 40  1  0
 10 41  1  0
 10 42  1  0
 11 43  1  0
 11 44  1  0
 13 45  1  0
 13 46  1  0
 15 47  1  0
 17 48  1  0
 17 49  1  0
 21 50  1  0
 26 51  1  0
 28 52  1  0
 28 53  1  0
 31 54  1  0
 32 55  1  0
 33 56  1  0
 34 57  1  0
 35 58  1  0
M  END
> <Name>
CHEMBL234988

> <IC50 nM>
4.79

> <Molecule_ChEMBL_ID>
CHEMBL234988

> <Smiles>
Nc1c(C(=O)NCC(O)(CC2(c3cc(F)ccc3Cl)CCC2)C(F)(F)F)cnn1-c1ccccc1

$$$$
CHEMBL3263766
  SciTegic08162514323D

 61 64  0  0  1  0            999 V2000
    7.4630    0.9940   -3.1800 S   0  0
    7.2050    1.8400   -4.3340 O   0  0
    8.2870    1.6370   -2.1720 O   0  0
    6.0350    0.6540   -2.4980 N   0  0
    8.2810   -0.4980   -3.7300 C   0  0
    5.2730    1.6820   -2.0200 C   0  0
    5.6640    2.8220   -2.1090 O   0  0
    3.9550    1.3670   -1.3890 C   0  0
    3.8070    0.2420   -0.5510 C   0  0
    2.8480    2.1990   -1.6310 C   0  0
    4.8360   -0.5490   -0.3120 O   0  0
    2.6030   -0.0490    0.0270 N   0  0
    1.6170    1.8870   -1.0290 C   0  0
    4.6520   -1.6270    0.5920 C   0  0
    1.5230    0.7500   -0.1990 C   0  0
    0.2210    0.4100    0.4450 C   0  0
   -0.8770    1.0680    0.3220 N   0  0
    0.0040   -0.7790    1.3480 C   0  0
   -1.8150    0.5960    0.9470 N   0  0
   -1.4710   -0.6130    1.6900 C   0  0  1  0  0  0
   -3.0630    1.1580    0.9470 C   0  0
   -2.2810   -1.8360    1.2640 C   0  0
   -3.5780    1.7320   -0.2280 C   0  0
   -3.8380    1.1600    2.1310 C   0  0
   -3.7130   -1.7890    1.7810 C   0  0
   -1.7660   -3.1270    1.8930 C   0  0
   -4.8610    2.3140   -0.2440 C   0  0
   -5.1150    1.7380    2.1230 C   0  0
   -4.1720   -3.2170    1.5180 C   0  0
   -2.9670   -4.0720    1.9020 C   0  0
   -5.6330    2.3130    0.9510 C   0  0
   -5.3790    2.9140   -1.5020 C   0  0
   -6.9420    2.9040    0.9490 C   0  0
   -8.0020    3.3810    0.9470 N   0  0
    5.7250   -0.2950   -2.4320 H   0  0
    9.2520   -0.3320   -4.1990 H   0  0
    7.6480   -1.0160   -4.4490 H   0  0
    8.4340   -1.1640   -2.8790 H   0  0
    2.9320    3.0680   -2.2680 H   0  0
    0.7560    2.5160   -1.2030 H   0  0
    4.4200   -1.2150    1.5740 H   0  0
    3.9100   -2.3070    0.1680 H   0  0
    5.5940   -2.1700    0.6720 H   0  0
    0.2210   -1.6990    0.8240 H   0  0
    0.6350   -0.7150    2.2250 H   0  0
   -1.5960   -0.4340    2.7500 H   0  0
   -2.2790   -1.9200    0.1860 H   0  0
   -2.9940    1.7360   -1.1460 H   0  0
   -3.4570    0.7270    3.0330 H   0  0
   -4.3180   -1.0610    1.2620 H   0  0
   -3.7420   -1.5630    2.8400 H   0  0
   -1.4340   -2.9490    2.9060 H   0  0
   -0.9300   -3.5370    1.3440 H   0  0
   -5.6940    1.7320    3.0310 H   0  0
   -5.0590   -3.4730    2.0800 H   0  0
   -4.4010   -3.3440    0.4690 H   0  0
   -3.0960   -4.5000    2.8870 H   0  0
   -2.8400   -4.8910    1.2090 H   0  0
   -6.3810    3.3340   -1.4200 H   0  0
   -5.3990    2.1540   -2.2850 H   0  0
   -4.7090    3.7090   -1.8280 H   0  0
  1  2  2  0
  1  3  2  0
  1  4  1  0
  1  5  1  0
  4  6  1  0
  6  7  2  0
  6  8  1  0
  8  9  2  0
  8 10  1  0
  9 11  1  0
  9 12  1  0
 10 13  2  0
 11 14  1  0
 12 15  2  0
 15 16  1  0
 16 17  2  0
 16 18  1  0
 17 19  1  0
 18 20  1  0
 19 21  1  0
 20 22  1  0
 21 23  2  0
 21 24  1  0
 22 25  1  0
 22 26  1  0
 23 27  1  0
 24 28  2  0
 25 29  1  0
 26 30  1  0
 27 31  2  0
 27 32  1  0
 31 33  1  0
 33 34  3  0
 13 15  1  0
 19 20  1  0
 28 31  1  0
 29 30  1  0
  4 35  1  0
  5 36  1  0
  5 37  1  0
  5 38  1  0
 10 39  1  0
 13 40  1  0
 14 41  1  0
 14 42  1  0
 14 43  1  0
 18 44  1  0
 18 45  1  0
 20 46  1  0
 22 47  1  0
 23 48  1  0
 24 49  1  0
 25 50  1  0
 25 51  1  0
 26 52  1  0
 26 53  1  0
 28 54  1  0
 29 55  1  0
 29 56  1  0
 30 57  1  0
 30 58  1  0
 32 59  1  0
 32 60  1  0
 32 61  1  0
M  END
> <Name>
CHEMBL3263766

> <IC50 nM>
10000

> <Molecule_ChEMBL_ID>
CHEMBL3263766

> <Smiles>
COc1nc(C2=NN(c3ccc(C#N)c(C)c3)[C@@H](C3CCCC3)C2)ccc1C(=O)NS(C)(=O)=O

$$$$
CHEMBL1929039
  SciTegic08162514323D

 41 44  0  0  0  0            999 V2000
    2.7870    3.7540    3.0660 F   0  0
    2.4980    2.6170    2.4340 C   0  0
    3.3940    2.0900    1.4900 C   0  0
    1.2970    1.9470    2.7110 C   0  0
    3.0940    0.8910    0.8200 C   0  0
    0.9900    0.7480    2.0470 C   0  0
    1.8850    0.2130    1.0980 C   0  0
    4.0720    0.3630   -0.1740 C   0  0
    1.5660   -0.9470    0.4670 N   0  0
    2.3050   -2.0640    0.4690 N   0  0
    0.4710   -1.2070   -0.2710 C   0  0
    1.7190   -3.0550   -0.2520 C   0  0
   -0.6620   -0.3070   -0.5860 C   0  0
    0.5100   -2.5270   -0.7560 C   0  0
    2.3140   -4.4340   -0.4340 C   0  0
   -1.9730   -0.8220   -0.5140 C   0  0
   -0.3790    1.0270   -0.9430 C   0  0
    3.5370   -4.3280   -1.0450 F   0  0
    1.4780   -5.1910   -1.2130 F   0  0
    2.4650   -5.0310    0.7890 F   0  0
   -3.0570    0.0450   -0.8130 C   0  0
   -1.4650    1.8850   -1.2360 C   0  0
   -4.3320   -0.4120   -0.7790 N   0  0
   -2.7970    1.4040   -1.1640 C   0  0
   -5.4050    0.4410   -0.9080 C   0  0
   -3.8130    2.2500   -1.4430 O   0  0
   -6.5330    0.0080   -0.9120 O   0  0
   -5.1530    1.9320   -1.0390 C   0  0
    4.3180    2.6090    1.2790 H   0  0
    0.6030    2.3500    3.4380 H   0  0
    0.0580    0.2500    2.2750 H   0  0
    4.7790    1.1480   -0.4390 H   0  0
    4.5590   -0.5250    0.2300 H   0  0
    3.5450    0.0680   -1.0820 H   0  0
   -0.2190   -3.0330   -1.3750 H   0  0
   -2.1370   -1.8550   -0.2380 H   0  0
    0.6390    1.3910   -0.9940 H   0  0
   -1.2740    2.9120   -1.5160 H   0  0
   -4.5140   -1.3910   -0.6620 H   0  0
   -5.8420    2.3830   -1.7520 H   0  0
   -5.3280    2.4040   -0.0720 H   0  0
  1  2  1  0
  2  3  2  0
  2  4  1  0
  3  5  1  0
  4  6  2  0
  5  7  2  0
  5  8  1  0
  7  9  1  0
  9 10  1  0
  9 11  1  0
 10 12  2  0
 11 13  1  0
 11 14  2  0
 12 15  1  0
 13 16  2  0
 13 17  1  0
 15 18  1  0
 15 19  1  0
 15 20  1  0
 16 21  1  0
 17 22  2  0
 21 23  1  0
 21 24  2  0
 23 25  1  0
 24 26  1  0
 25 27  2  0
 25 28  1  0
  6  7  1  0
 12 14  1  0
 22 24  1  0
 26 28  1  0
  3 29  1  0
  4 30  1  0
  6 31  1  0
  8 32  1  0
  8 33  1  0
  8 34  1  0
 14 35  1  0
 16 36  1  0
 17 37  1  0
 22 38  1  0
 23 39  1  0
 28 40  1  0
 28 41  1  0
M  END
> <Name>
CHEMBL1929039

> <IC50 nM>
1800

> <Molecule_ChEMBL_ID>
CHEMBL1929039

> <Smiles>
Cc1cc(F)ccc1-n1nc(C(F)(F)F)cc1-c1ccc2c(c1)NC(=O)CO2

$$$$
CHEMBL3358947
  SciTegic08162514323D

 57 59  0  0  1  0            999 V2000
   -6.7460    0.8890   -3.8160 Cl  0  0
   -5.2360    1.0140   -3.0120 C   0  0
   -4.9770    2.1090   -2.1680 C   0  0
   -4.2560    0.0210   -3.1950 C   0  0
   -3.7380    2.2150   -1.5100 C   0  0
   -3.0180    0.1270   -2.5390 C   0  0
   -2.7560    1.2210   -1.6950 C   0  0
   -3.4810    3.3870   -0.6150 C   0  0
   -1.4380    1.3120   -1.0100 C   0  0
   -2.6930    4.2480   -0.9320 O   0  0
   -4.1520    3.4670    0.5700 N   0  0
   -0.7340   -0.0430   -0.9570 C   0  0
   -1.5650    1.9670    0.3670 C   0  0
   -0.8320    2.2520   -2.0530 C   0  0
   -1.4200   -1.0270   -0.0080 C   0  0  1  0  0  0
   -2.8050   -0.7560   -0.0160 O   0  0
   -1.2010   -2.4220   -0.5920 C   0  0
   -0.9180   -0.9040    1.4320 C   0  0
    0.1130   -2.5670   -0.9490 F   0  0
   -1.9960   -2.5840   -1.6990 F   0  0
   -1.5270   -3.3670    0.3460 F   0  0
    0.5900   -1.0120    1.4980 C   0  0
    1.4450    0.1170    1.5740 N   0  0
    1.3850   -2.1760    1.4960 C   0  0
    2.7400   -0.3690    1.6190 C   0  0
    2.6620   -1.7380    1.5700 C   0  0
    4.0140    0.2300    1.6990 C   0  0
    3.8380   -2.5390    1.5980 C   0  0
    5.1910   -0.4840    1.7310 N   0  0
    5.0980   -1.8730    1.6800 C   0  0
    6.5330   -2.8050    1.7170 S   0  0
    6.6110   -3.5700    0.4860 O   0  0
    6.5100   -3.6330    2.9080 O   0  0
    7.9430   -1.7090    1.8050 C   0  0
   -5.7290    2.8730   -2.0250 H   0  0
   -4.4420   -0.8260   -3.8380 H   0  0
   -2.2700   -0.6370   -2.6860 H   0  0
   -4.0140    4.2290    1.2030 H   0  0
   -4.8030    2.7540    0.8300 H   0  0
    0.3160    0.0780   -0.6930 H   0  0
   -0.6470   -0.4710   -1.9550 H   0  0
   -2.5140    1.7250    0.8460 H   0  0
   -1.5000    3.0510    0.2870 H   0  0
   -0.7640    1.6330    1.0270 H   0  0
   -1.5270    3.0530   -2.3010 H   0  0
    0.0980    2.6870   -1.6870 H   0  0
   -0.6070    1.7110   -2.9730 H   0  0
   -3.0220   -0.3500    0.8380 H   0  0
   -1.3650   -1.6740    2.0630 H   0  0
   -1.2360    0.0410    1.8710 H   0  0
    1.1680    1.0720    1.5920 H   0  0
    1.0390   -3.1990    1.4450 H   0  0
    4.0720    1.3090    1.7380 H   0  0
    3.7850   -3.6190    1.5570 H   0  0
    8.0250   -1.0140    0.9670 H   0  0
    8.8590   -2.2990    1.8400 H   0  0
    7.8910   -1.1210    2.7210 H   0  0
  1  2  1  0
  2  3  2  0
  2  4  1  0
  3  5  1  0
  4  6  2  0
  5  7  2  0
  5  8  1  0
  7  9  1  0
  8 10  2  0
  8 11  1  0
  9 12  1  0
  9 13  1  0
  9 14  1  0
 12 15  1  0
 15 16  1  0
 15 17  1  0
 15 18  1  0
 17 19  1  0
 17 20  1  0
 17 21  1  0
 18 22  1  0
 22 23  1  0
 22 24  2  0
 23 25  1  0
 24 26  1  0
 25 27  1  0
 26 28  1  0
 27 29  2  0
 28 30  2  0
 30 31  1  0
 31 32  2  0
 31 33  2  0
 31 34  1  0
  6  7  1  0
 25 26  2  0
 29 30  1  0
  3 35  1  0
  4 36  1  0
  6 37  1  0
 11 38  1  0
 11 39  1  0
 12 40  1  0
 12 41  1  0
 13 42  1  0
 13 43  1  0
 13 44  1  0
 14 45  1  0
 14 46  1  0
 14 47  1  0
 16 48  1  0
 18 49  1  0
 18 50  1  0
 23 51  1  0
 24 52  1  0
 27 53  1  0
 28 54  1  0
 34 55  1  0
 34 56  1  0
 34 57  1  0
M  END
> <Name>
CHEMBL3358947

> <IC50 nM>
40

> <Molecule_ChEMBL_ID>
CHEMBL3358947

> <Smiles>
CC(C)(CC(O)(Cc1cc2cc(S(C)(=O)=O)ncc2[nH]1)C(F)(F)F)c1ccc(Cl)cc1C(N)=O

$$$$
CHEMBL479431
  SciTegic08162514323D

 58 60  0  0  1  0            999 V2000
   -0.3910    4.5450   -1.5270 Cl  0  0
    1.2130    4.0080   -1.8440 C   0  0
    1.5020    2.6430   -2.0740 C   0  0
    2.2520    4.9550   -1.8750 C   0  0
    0.4280    1.6020   -2.0510 C   0  0
    2.8280    2.2440   -2.3320 C   0  0
    3.5740    4.5510   -2.1330 C   0  0
   -0.1540    1.3320   -1.0250 O   0  0
    0.1090    0.9590   -3.2130 N   0  0
    3.8590    3.1950   -2.3610 C   0  0
    4.5530    5.4510   -2.1600 F   0  0
   -0.8090   -0.1870   -3.1760 C   0  0
    0.6660    1.3850   -4.5060 C   0  0
   -0.0410   -1.5000   -3.0120 C   0  0  2  0  0  0
    0.0080    2.6800   -4.9840 C   0  0
    0.9240   -1.5800   -4.0370 O   0  0
   -1.0530   -2.6270   -3.2190 C   0  0
    0.6820   -1.5960   -1.6680 C   0  0
   -1.4080   -2.6850   -4.5410 F   0  0
   -2.1680   -2.3850   -2.4570 F   0  0
   -0.4920   -3.8200   -2.8420 F   0  0
   -0.2660   -1.4820   -0.5510 N   0  0
    0.1800   -1.6600    0.7290 C   0  0
    1.3440   -1.9080    0.9410 O   0  0
   -0.7580   -1.5510    1.8400 C   0  0
   -0.4610   -1.7250    3.2130 C   0  0
   -2.1310   -1.2480    1.7320 C   0  0
   -1.6330   -1.5270    3.8710 N   0  0
    0.8610   -2.0550    3.7810 N   0  0
   -2.6000   -1.2500    2.9920 N   0  0
   -1.8200   -1.5980    5.2150 C   0  0
   -2.4880   -0.5570    5.8890 C   0  0
   -1.3500   -2.7090    5.9400 C   0  0
   -2.6840   -0.6290    7.2790 C   0  0
   -1.5470   -2.7790    7.3280 C   0  0
   -2.2130   -1.7400    8.0000 C   0  0
   -2.3980   -1.8070    9.3170 F   0  0
    2.0450    6.0020   -1.6990 H   0  0
    3.0610    1.2030   -2.5080 H   0  0
    4.8730    2.8790   -2.5610 H   0  0
   -1.4020   -0.2010   -4.0900 H   0  0
   -1.5200   -0.0530   -2.3610 H   0  0
    1.7440    1.5160   -4.4080 H   0  0
    0.5270    0.5880   -5.2360 H   0  0
   -1.0350    2.5060   -5.2480 H   0  0
    0.0570    3.4450   -4.2130 H   0  0
    0.5140    3.0650   -5.8690 H   0  0
    1.7460   -1.2070   -3.6860 H   0  0
    1.4360   -0.8120   -1.5780 H   0  0
    1.2230   -2.5390   -1.5860 H   0  0
   -1.2300   -1.2790   -0.7230 H   0  0
   -2.7230   -1.0490    0.8480 H   0  0
    1.6660   -2.1850    3.2030 H   0  0
    0.9710   -2.1520    4.7700 H   0  0
   -2.8570    0.3070    5.3540 H   0  0
   -0.8360   -3.5190    5.4420 H   0  0
   -3.1950    0.1740    7.7910 H   0  0
   -1.1840   -3.6350    7.8790 H   0  0
  1  2  1  0
  2  3  2  0
  2  4  1  0
  3  5  1  0
  3  6  1  0
  4  7  2  0
  5  8  2  0
  5  9  1  0
  6 10  2  0
  7 11  1  0
  9 12  1  0
  9 13  1  0
 12 14  1  0
 13 15  1  0
 14 16  1  0
 14 17  1  0
 14 18  1  0
 17 19  1  0
 17 20  1  0
 17 21  1  0
 18 22  1  0
 22 23  1  0
 23 24  2  0
 23 25  1  0
 25 26  2  0
 25 27  1  0
 26 28  1  0
 26 29  1  0
 27 30  2  0
 28 31  1  0
 31 32  2  0
 31 33  1  0
 32 34  1  0
 33 35  2  0
 34 36  2  0
 36 37  1  0
  7 10  1  0
 28 30  1  0
 35 36  1  0
  4 38  1  0
  6 39  1  0
 10 40  1  0
 12 41  1  0
 12 42  1  0
 13 43  1  0
 13 44  1  0
 15 45  1  0
 15 46  1  0
 15 47  1  0
 16 48  1  0
 18 49  1  0
 18 50  1  0
 22 51  1  0
 27 52  1  0
 29 53  1  0
 29 54  1  0
 32 55  1  0
 33 56  1  0
 34 57  1  0
 35 58  1  0
M  END
> <Name>
CHEMBL479431

> <IC50 nM>
19.95

> <Molecule_ChEMBL_ID>
CHEMBL479431

> <Smiles>
CCN(CC(O)(CNC(=O)c1cnn(-c2ccc(F)cc2)c1N)C(F)(F)F)C(=O)c1ccc(F)cc1Cl

$$$$
CHEMBL3358922
  SciTegic08162514323D

 53 55  0  0  1  0            999 V2000
   -5.5780   -2.1720    2.8300 F   0  0
   -5.1540   -1.4360    1.8070 C   0  0
   -3.8580   -0.8910    1.8200 C   0  0
   -6.0020   -1.1990    0.7110 C   0  0
   -3.4080   -0.1090    0.7400 C   0  0
   -5.5550   -0.4200   -0.3690 C   0  0
   -4.2580    0.1250   -0.3570 C   0  0
   -2.0330    0.4590    0.7730 C   0  0
   -3.8010    0.9490   -1.5100 C   0  0
   -1.5330   -0.3910   -0.3970 C   0  0
   -1.3180    0.1330    2.0860 C   0  0
   -2.0350    1.9550    0.4590 C   0  0
   -0.0060   -0.4550   -0.4690 C   0  0  1  0  0  0
    0.4550   -1.2190    0.6230 O   0  0
    0.3380   -1.2030   -1.7580 C   0  0
    0.6460    0.9260   -0.3950 C   0  0
   -0.7660   -1.2440   -2.5700 F   0  0
    0.7280   -2.4820   -1.4530 F   0  0
    1.3590   -0.5550   -2.4020 F   0  0
    2.1560    0.8150   -0.3300 C   0  0
    3.0140    1.9410   -0.2540 N   0  0
    2.9470   -0.3500   -0.3320 C   0  0
    4.3070    1.4510   -0.2090 C   0  0
    4.2270    0.0800   -0.2580 C   0  0
    5.5800    2.0510   -0.1290 C   0  0
    5.4100   -0.7190   -0.2310 C   0  0
    6.7580    1.3400   -0.0960 N   0  0
    6.6680   -0.0470   -0.1480 C   0  0
    5.3540   -2.1890   -0.2850 C   0  0
   -3.2070   -1.0720    2.6640 H   0  0
   -6.9980   -1.6150    0.6950 H   0  0
   -6.2110   -0.2420   -1.2090 H   0  0
   -4.5800    1.6620   -1.7790 H   0  0
   -2.8560    1.4300   -1.2600 H   0  0
   -3.6290    0.3030   -2.3710 H   0  0
   -1.9470   -0.0290   -1.3380 H   0  0
   -1.9590   -1.3930   -0.3560 H   0  0
   -1.8650    0.5100    2.9490 H   0  0
   -0.3220    0.5740    2.1040 H   0  0
   -1.2070   -0.9450    2.2050 H   0  0
   -1.5900    2.5390    1.2640 H   0  0
   -3.0510    2.3150    0.3070 H   0  0
   -1.4690    2.1580   -0.4510 H   0  0
    0.9710   -0.6270    1.1890 H   0  0
    0.2850    1.4770    0.4730 H   0  0
    0.3630    1.5310   -1.2560 H   0  0
    2.7380    2.8970   -0.2360 H   0  0
    2.5960   -1.3730   -0.3830 H   0  0
    5.6390    3.1290   -0.0900 H   0  0
    7.5780   -0.6270   -0.1250 H   0  0
    4.3460   -2.5980   -0.3630 H   0  0
    5.8110   -2.6040    0.6130 H   0  0
    5.9240   -2.5450   -1.1430 H   0  0
  1  2  1  0
  2  3  2  0
  2  4  1  0
  3  5  1  0
  4  6  2  0
  5  7  2  0
  5  8  1  0
  7  9  1  0
  8 10  1  0
  8 11  1  0
  8 12  1  0
 10 13  1  0
 13 14  1  0
 13 15  1  0
 13 16  1  0
 15 17  1  0
 15 18  1  0
 15 19  1  0
 16 20  1  0
 20 21  1  0
 20 22  2  0
 21 23  1  0
 22 24  1  0
 23 25  1  0
 24 26  1  0
 25 27  2  0
 26 28  2  0
 26 29  1  0
  6  7  1  0
 23 24  2  0
 27 28  1  0
  3 30  1  0
  4 31  1  0
  6 32  1  0
  9 33  1  0
  9 34  1  0
  9 35  1  0
 10 36  1  0
 10 37  1  0
 11 38  1  0
 11 39  1  0
 11 40  1  0
 12 41  1  0
 12 42  1  0
 12 43  1  0
 14 44  1  0
 16 45  1  0
 16 46  1  0
 21 47  1  0
 22 48  1  0
 25 49  1  0
 28 50  1  0
 29 51  1  0
 29 52  1  0
 29 53  1  0
M  END
> <Name>
CHEMBL3358922

> <IC50 nM>
11

> <Molecule_ChEMBL_ID>
CHEMBL3358922

> <Smiles>
Cc1ccc(F)cc1C(C)(C)CC(O)(Cc1cc2c(C)cncc2[nH]1)C(F)(F)F

$$$$
CHEMBL3358930
  SciTegic08162514323D

 54 56  0  0  1  0            999 V2000
   -5.6190   -2.6010    2.9730 F   0  0
   -5.3050   -1.7950    1.9610 C   0  0
   -4.0350   -1.1930    1.9080 C   0  0
   -6.2420   -1.5450    0.9430 C   0  0
   -3.6990   -0.3420    0.8400 C   0  0
   -5.9100   -0.6950   -0.1230 C   0  0
   -4.6410   -0.0920   -0.1800 C   0  0
   -2.3520    0.2850    0.8010 C   0  0
   -4.3070    0.8070   -1.3190 C   0  0
   -1.9200   -0.4550   -0.4650 C   0  0
   -1.5160   -0.0960    2.0230 C   0  0
   -2.4420    1.7990    0.5960 C   0  0
   -0.4010   -0.4800   -0.6450 C   0  0  1  0  0  0
    0.1420   -1.3460    0.3280 O   0  0
   -0.1350   -1.0840   -2.0240 C   0  0
    0.2380    0.8970   -0.4690 C   0  0
   -0.9690   -0.5060   -2.9440 F   0  0
   -0.3630   -2.4350   -1.9850 F   0  0
    1.1700   -0.8510   -2.3790 F   0  0
    1.7480    0.7970   -0.4020 C   0  0
    2.5980    1.9300   -0.3280 N   0  0
    2.5490   -0.3630   -0.4040 C   0  0
    3.8930    1.4470   -0.2810 C   0  0
    3.8220    0.0800   -0.3300 C   0  0
    5.1600    2.0490   -0.2010 C   0  0
    5.0060   -0.7110   -0.3030 C   0  0
    6.3360    1.3320   -0.1700 N   0  0
    6.2830   -0.0600   -0.2210 C   0  0
    7.4510   -0.9650   -0.1950 C   0  0
    7.4730   -2.1740   -0.2190 O   0  0
    8.6150   -0.2540   -0.1370 N   0  0
   -3.3150   -1.3890    2.6910 H   0  0
   -7.2190   -2.0060    0.9800 H   0  0
   -6.6370   -0.5060   -0.9030 H   0  0
   -5.1580    1.4510   -1.5330 H   0  0
   -3.4030    1.3670   -1.0840 H   0  0
   -4.1080    0.2090   -2.2070 H   0  0
   -2.4020   -0.0310   -1.3440 H   0  0
   -2.3260   -1.4670   -0.4770 H   0  0
   -1.9980    0.2010    2.9530 H   0  0
   -0.5370    0.3830    1.9860 H   0  0
   -1.3580   -1.1740    2.0580 H   0  0
   -1.9510    2.3480    1.4020 H   0  0
   -3.4810    2.1210    0.5570 H   0  0
   -1.9650    2.0900   -0.3400 H   0  0
    0.6270   -0.7950    0.9630 H   0  0
   -0.1330    1.3810    0.4330 H   0  0
   -0.0470    1.5610   -1.2850 H   0  0
    2.3160    2.8850   -0.3110 H   0  0
    2.2070   -1.3890   -0.4530 H   0  0
    5.2170    3.1270   -0.1620 H   0  0
    4.9390   -1.7890   -0.3440 H   0  0
    9.5080   -0.7070   -0.1110 H   0  0
    8.5960    0.7440   -0.1170 H   0  0
  1  2  1  0
  2  3  2  0
  2  4  1  0
  3  5  1  0
  4  6  2  0
  5  7  2  0
  5  8  1  0
  7  9  1  0
  8 10  1  0
  8 11  1  0
  8 12  1  0
 10 13  1  0
 13 14  1  0
 13 15  1  0
 13 16  1  0
 15 17  1  0
 15 18  1  0
 15 19  1  0
 16 20  1  0
 20 21  1  0
 20 22  2  0
 21 23  1  0
 22 24  1  0
 23 25  1  0
 24 26  1  0
 25 27  2  0
 26 28  2  0
 28 29  1  0
 29 30  2  0
 29 31  1  0
  6  7  1  0
 23 24  2  0
 27 28  1  0
  3 32  1  0
  4 33  1  0
  6 34  1  0
  9 35  1  0
  9 36  1  0
  9 37  1  0
 10 38  1  0
 10 39  1  0
 11 40  1  0
 11 41  1  0
 11 42  1  0
 12 43  1  0
 12 44  1  0
 12 45  1  0
 14 46  1  0
 16 47  1  0
 16 48  1  0
 21 49  1  0
 22 50  1  0
 25 51  1  0
 26 52  1  0
 31 53  1  0
 31 54  1  0
M  END
> <Name>
CHEMBL3358930

> <IC50 nM>
7

> <Molecule_ChEMBL_ID>
CHEMBL3358930

> <Smiles>
Cc1ccc(F)cc1C(C)(C)CC(O)(Cc1cc2cc(C(N)=O)ncc2[nH]1)C(F)(F)F

$$$$
CHEMBL3358939
  SciTegic08162514323D

 64 67  0  0  1  0            999 V2000
    1.7210   -0.9570    1.9240 F   0  0
    2.1170    0.3320    1.6740 C   0  0
    2.4120    0.9570    2.8580 F   0  0
    3.2290    0.3200    0.8730 F   0  0
    0.9860    1.0820    0.9690 C   0  0  1  0  0  0
    0.9730    0.6890   -0.3850 O   0  0
   -0.3870    0.7810    1.5680 C   0  0
    1.3460    2.5680    1.0330 C   0  0
   -0.7890   -0.6560    1.3200 C   0  0
    1.0100    3.3130   -0.2600 C   0  0
   -1.9080   -1.2700    1.9410 N   0  0
   -0.1720   -1.6040    0.4790 C   0  0
    1.1130    4.7850   -0.0860 C   0  0
    1.8340    2.8260   -1.4510 C   0  0
   -0.4900    3.3400   -0.5530 C   0  0
   -1.9570   -2.5700    1.4730 C   0  0
   -0.9060   -2.7310    0.6040 C   0  0
    0.8590    5.6410   -1.1720 C   0  0
    1.4670    5.3220    1.1640 C   0  0
   -2.8150   -3.6640    1.7010 C   0  0
   -0.6820   -3.9730   -0.0530 C   0  0
    0.9570    7.0350   -1.0080 C   0  0
    1.5640    6.7150    1.3280 C   0  0
   -2.6560   -4.8950    1.1000 N   0  0
   -1.5880   -5.0470    0.2210 C   0  0
    0.6870    7.9450   -2.1620 C   0  0
    1.3110    7.5700    0.2420 C   0  0
   -1.4100   -6.2360   -0.3790 N   0  0
    0.7560    9.1450   -2.0350 O   0  0
    0.3610    7.3970   -3.3690 N   0  0
   -0.0650   -6.6990   -0.8050 C   0  0
   -2.5490   -7.1490   -0.6520 C   0  0
    0.1500   -8.1990   -0.5060 C   0  0
   -2.1920   -8.6210   -0.3630 C   0  0
   -0.9530   -8.9690   -0.9690 O   0  0
    0.0430    0.6210   -0.6520 H   0  0
   -1.1430    1.4470    1.1540 H   0  0
   -0.3930    0.9800    2.6410 H   0  0
    0.8630    3.0450    1.8890 H   0  0
    2.3960    2.6990    1.2930 H   0  0
   -2.5350   -0.8480    2.5880 H   0  0
    0.7050   -1.4550   -0.1370 H   0  0
    2.2660    3.6540   -2.0120 H   0  0
    1.2170    2.2460   -2.1370 H   0  0
    2.6520    2.1880   -1.1190 H   0  0
   -0.6910    3.8520   -1.4940 H   0  0
   -0.8910    2.3260   -0.6050 H   0  0
   -1.0270    3.8670    0.2340 H   0  0
    0.5880    5.2270   -2.1330 H   0  0
    1.6640    4.6700    2.0020 H   0  0
   -3.6410   -3.5350    2.3850 H   0  0
    0.1500   -4.0940   -0.7340 H   0  0
    1.8360    7.1270    2.2890 H   0  0
    1.3890    8.6410    0.3790 H   0  0
    0.3010    6.4060   -3.4980 H   0  0
    0.1740    7.9840   -4.1560 H   0  0
    0.7190   -6.1190   -0.3140 H   0  0
    0.0350   -6.5200   -1.8750 H   0  0
   -2.8300   -7.0350   -1.6990 H   0  0
   -3.4220   -6.8650   -0.0620 H   0  0
    0.2710   -8.3770    0.5630 H   0  0
    1.0490   -8.5630   -1.0040 H   0  0
   -2.1170   -8.8090    0.7090 H   0  0
   -2.9610   -9.2850   -0.7600 H   0  0
  1  2  1  0
  2  3  1  0
  2  4  1  0
  2  5  1  0
  5  6  1  0
  5  7  1  0
  5  8  1  0
  7  9  1  0
  8 10  1  0
  9 11  1  0
  9 12  2  0
 10 13  1  0
 10 14  1  0
 10 15  1  0
 11 16  1  0
 12 17  1  0
 13 18  2  0
 13 19  1  0
 16 20  1  0
 17 21  1  0
 18 22  1  0
 19 23  2  0
 20 24  2  0
 21 25  2  0
 22 26  1  0
 22 27  2  0
 25 28  1  0
 26 29  2  0
 26 30  1  0
 28 31  1  0
 28 32  1  0
 31 33  1  0
 32 34  1  0
 33 35  1  0
 16 17  2  0
 23 27  1  0
 24 25  1  0
 34 35  1  0
  6 36  1  0
  7 37  1  0
  7 38  1  0
  8 39  1  0
  8 40  1  0
 11 41  1  0
 12 42  1  0
 14 43  1  0
 14 44  1  0
 14 45  1  0
 15 46  1  0
 15 47  1  0
 15 48  1  0
 18 49  1  0
 19 50  1  0
 20 51  1  0
 21 52  1  0
 23 53  1  0
 27 54  1  0
 30 55  1  0
 30 56  1  0
 31 57  1  0
 31 58  1  0
 32 59  1  0
 32 60  1  0
 33 61  1  0
 33 62  1  0
 34 63  1  0
 34 64  1  0
M  END
> <Name>
CHEMBL3358939

> <IC50 nM>
46

> <Molecule_ChEMBL_ID>
CHEMBL3358939

> <Smiles>
CC(C)(CC(O)(Cc1cc2cc(N3CCOCC3)ncc2[nH]1)C(F)(F)F)c1cccc(C(N)=O)c1

$$$$
CHEMBL3421881
  SciTegic08162514323D

 50 52  0  0  1  0            999 V2000
   -5.4630   -0.7750    2.2580 O   0  0
   -4.2540   -0.7270    1.6840 C   0  0
   -4.0720   -0.0200    0.4730 C   0  0
   -3.1580   -1.3850    2.2830 C   0  0
   -2.7950    0.0350   -0.1390 C   0  0
   -1.8810   -1.3300    1.6820 C   0  0
   -1.6800   -0.6150    0.4670 C   0  0
   -2.6230    0.7580   -1.4260 C   0  0
   -0.3380   -0.5160   -0.2010 C   0  0  1  0  0  0
   -1.2540    1.4510   -1.6020 C   0  0
   -0.1350    0.9590   -0.6560 C   0  0  2  0  0  0
    0.8480   -0.9280    0.7290 C   0  0
   -0.3690   -1.4450   -1.4260 C   0  0
    1.2580    1.2110   -1.2640 C   0  0
    2.2660   -0.6490    0.1680 C   0  0  2  0  0  0
   -0.4340   -2.9240   -1.0410 C   0  0
    2.3910    0.8340   -0.2890 C   0  0  1  0  0  0
    2.4860   -1.5250   -0.9260 O   0  0
    3.3340   -1.0250    1.2030 C   0  0
    3.6290    1.0530   -0.9450 O   0  0
    2.4000    1.7870    0.9140 C   0  0
    2.3280    3.2580    0.5040 C   0  0
   -6.2050   -0.3220    1.8360 H   0  0
   -4.9160    0.4760    0.0160 H   0  0
   -3.2950   -1.9320    3.2050 H   0  0
   -1.0720   -1.8480    2.1720 H   0  0
   -2.7520    0.0250   -2.2230 H   0  0
   -3.4180    1.4920   -1.5680 H   0  0
   -1.3690    2.5270   -1.4730 H   0  0
   -0.9430    1.3180   -2.6410 H   0  0
   -0.1990    1.5800    0.2400 H   0  0
    0.7620   -0.3870    1.6740 H   0  0
    0.7730   -1.9880    0.9860 H   0  0
    0.4840   -1.2540   -2.0760 H   0  0
   -1.1930   -1.1840   -2.0880 H   0  0
    1.3440    2.2620   -1.5490 H   0  0
    1.3520    0.6410   -2.1890 H   0  0
   -0.6910   -3.5550   -1.8930 H   0  0
   -1.1840   -3.0880   -0.2660 H   0  0
    0.5270   -3.2640   -0.6520 H   0  0
    3.4200   -1.4400   -1.1760 H   0  0
    4.3380   -0.7790    0.8590 H   0  0
    3.3070   -2.0940    1.4140 H   0  0
    3.1640   -0.4960    2.1430 H   0  0
    3.5040    1.7990   -1.5510 H   0  0
    1.5960    1.5410    1.6080 H   0  0
    3.2710    1.6050    1.5430 H   0  0
    2.5230    3.9060    1.3580 H   0  0
    3.0530    3.4750   -0.2810 H   0  0
    1.3380    3.5020    0.1190 H   0  0
  1  2  1  0
  2  3  2  0
  2  4  1  0
  3  5  1  0
  4  6  2  0
  5  7  2  0
  5  8  1  0
  7  9  1  0
  8 10  1  0
  9 11  1  0
  9 12  1  0
  9 13  1  0
 11 14  1  0
 12 15  1  0
 13 16  1  0
 14 17  1  0
 15 18  1  0
 15 19  1  0
 17 20  1  0
 17 21  1  0
 21 22  1  0
  6  7  1  0
 10 11  1  0
 15 17  1  0
  1 23  1  0
  3 24  1  0
  4 25  1  0
  6 26  1  0
  8 27  1  0
  8 28  1  0
 10 29  1  0
 10 30  1  0
 11 31  1  0
 12 32  1  0
 12 33  1  0
 13 34  1  0
 13 35  1  0
 14 36  1  0
 14 37  1  0
 16 38  1  0
 16 39  1  0
 16 40  1  0
 18 41  1  0
 19 42  1  0
 19 43  1  0
 19 44  1  0
 20 45  1  0
 21 46  1  0
 21 47  1  0
 22 48  1  0
 22 49  1  0
 22 50  1  0
M  END
> <Name>
CHEMBL3421881

> <IC50 nM>
47

> <Molecule_ChEMBL_ID>
CHEMBL3421881

> <Smiles>
CC[C@@]12C[C@@](C)(O)[C@](O)(CC)C[C@H]1CCc1cc(O)ccc12

$$$$
CHEMBL3421889
  SciTegic08162514323D

 52 55  0  0  1  0            999 V2000
    6.6310    0.8980   -0.2930 O   0  0
    5.2970    0.7710   -0.3180 C   0  0
    4.7110   -0.5060   -0.4730 C   0  0
    4.4750    1.9140   -0.1910 C   0  0
    3.3010   -0.6390   -0.4920 C   0  0
    3.0680    1.7830   -0.2260 C   0  0
    2.4610    0.5080   -0.3830 C   0  0
    2.6930   -1.9880   -0.6410 C   0  0
    0.9690    0.3500   -0.4710 C   0  0  1  0  0  0
    1.3790   -2.1840   -0.4330 C   0  0
    0.5100   -1.0410    0.0510 C   0  0  2  0  0  0
    0.1840    1.4490    0.3180 C   0  0
    0.6390    0.4550   -1.9710 C   0  0
   -0.9960   -1.3110   -0.2030 C   0  0
   -1.2030    1.0120    0.8850 C   0  0  2  0  0  0
    1.8870    0.4040   -2.8530 C   0  0
   -1.9100   -0.0610   -0.0100 C   0  0  1  0  0  0
   -2.0020    2.1800    1.0080 O   0  0
   -1.0490    0.5020    2.3280 C   0  0
   -2.1620    0.5020   -1.2890 O   0  0
   -3.2440   -0.4710    0.5270 C   0  0
   -4.4240    0.0450   -0.0410 C   0  0
   -3.3220   -1.3730    1.6040 C   0  0
   -5.6760   -0.3400    0.4650 C   0  0
   -4.5760   -1.7580    2.1100 C   0  0
   -5.7520   -1.2420    1.5410 C   0  0
    7.1820    0.1090   -0.3810 H   0  0
    5.3440   -1.3750   -0.5700 H   0  0
    4.9200    2.8910   -0.0680 H   0  0
    2.4670    2.6760   -0.1390 H   0  0
    3.3150   -2.8300   -0.9160 H   0  0
    0.9450   -3.1560   -0.6090 H   0  0
    0.6430   -1.0270    1.1330 H   0  0
    0.0740    2.3200   -0.3340 H   0  0
    0.7700    1.8120    1.1660 H   0  0
   -0.0720   -0.3170   -2.2640 H   0  0
    0.0590    1.3550   -2.1760 H   0  0
   -1.1330   -1.7360   -1.1990 H   0  0
   -1.2890   -2.1110    0.4790 H   0  0
    1.6150    0.4730   -3.9060 H   0  0
    2.5660    1.2190   -2.6070 H   0  0
    2.4240   -0.5330   -2.7070 H   0  0
   -1.4980    2.8180    1.5350 H   0  0
   -0.2950    1.0620    2.8790 H   0  0
   -0.7580   -0.5470    2.3380 H   0  0
   -1.9920    0.5900    2.8710 H   0  0
   -2.4490    1.4180   -1.1480 H   0  0
   -4.3710    0.7400   -0.8670 H   0  0
   -2.4220   -1.7740    2.0450 H   0  0
   -6.5800    0.0570    0.0290 H   0  0
   -4.6350   -2.4510    2.9360 H   0  0
   -6.7150   -1.5390    1.9300 H   0  0
  1  2  1  0
  2  3  2  0
  2  4  1  0
  3  5  1  0
  4  6  2  0
  5  7  2  0
  5  8  1  0
  7  9  1  0
  8 10  2  0
  9 11  1  0
  9 12  1  0
  9 13  1  0
 11 14  1  0
 12 15  1  0
 13 16  1  0
 14 17  1  0
 15 18  1  0
 15 19  1  0
 17 20  1  0
 17 21  1  0
 21 22  2  0
 21 23  1  0
 22 24  1  0
 23 25  2  0
 24 26  2  0
  6  7  1  0
 10 11  1  0
 15 17  1  0
 25 26  1  0
  1 27  1  0
  3 28  1  0
  4 29  1  0
  6 30  1  0
  8 31  1  0
 10 32  1  0
 11 33  1  0
 12 34  1  0
 12 35  1  0
 13 36  1  0
 13 37  1  0
 14 38  1  0
 14 39  1  0
 16 40  1  0
 16 41  1  0
 16 42  1  0
 18 43  1  0
 19 44  1  0
 19 45  1  0
 19 46  1  0
 20 47  1  0
 22 48  1  0
 23 49  1  0
 24 50  1  0
 25 51  1  0
 26 52  1  0
M  END
> <Name>
CHEMBL3421889

> <IC50 nM>
4

> <Molecule_ChEMBL_ID>
CHEMBL3421889

> <Smiles>
CC[C@@]12C[C@@](C)(O)[C@](O)(c3ccccc3)C[C@H]1C=Cc1cc(O)ccc12

$$$$
CHEMBL3911831
  SciTegic08162514323D

 56 59  0  0  1  0            999 V2000
   -1.5710   -4.5630    2.3090 S   0  0
   -0.9770   -2.9840    2.2530 C   0  0
   -3.2610   -4.3210    2.6920 C   0  0
    0.3920   -2.7170    2.4540 C   0  0
   -1.8350   -1.8950    2.0040 C   0  0
    0.8920   -1.4050    2.4090 C   0  0
   -1.3460   -0.5790    1.9560 C   0  0
    0.0210   -0.3320    2.1590 C   0  0
    0.5450    1.0580    2.1100 C   0  0  1  0  0  0
   -0.1770    1.8010    1.1390 O   0  0
    0.4320    1.7500    3.4690 C   0  0  1  0  0  0
   -0.2010    1.3380   -0.1180 C   0  0
    1.1540    3.0310    3.4690 N   0  0
   -1.0170    1.9380    3.9170 C   0  0
   -1.1910    1.8030   -1.0250 C   0  0
    0.7630    0.3830   -0.5390 C   0  0
    2.5200    3.0310    3.4690 C   0  0
   -1.2060    1.3040   -2.3540 C   0  0
    0.7440   -0.1130   -1.8660 C   0  0
    3.1310    1.9870    3.4710 O   0  0
    3.2430    4.3510    3.4650 C   0  0
   -0.2570    0.3750   -2.7380 C   0  0
   -2.1390    1.7110   -3.2920 C   0  0
    4.5870    4.0830    3.4650 F   0  0
    2.9210    5.0770    4.5830 F   0  0
    2.9200    5.0720    2.3440 F   0  0
   -0.5870    0.1470   -4.0350 N   0  0
   -1.6790    0.9310   -4.3340 N   0  0
    0.0360   -0.6980   -4.8970 C   0  0
    0.2840   -0.2970   -6.2240 C   0  0
    0.4360   -1.9790   -4.4670 C   0  0
    0.9280   -1.1720   -7.1160 C   0  0
    1.0790   -2.8520   -5.3610 C   0  0
    1.3260   -2.4500   -6.6850 C   0  0
    1.9360   -3.2780   -7.5300 F   0  0
   -3.6950   -5.2620    3.0300 H   0  0
   -3.3570   -3.5240    3.4290 H   0  0
   -3.7960   -4.0110    1.7940 H   0  0
    1.0700   -3.5350    2.6470 H   0  0
   -2.8880   -2.0740    1.8470 H   0  0
    1.9460   -1.2280    2.5660 H   0  0
   -2.0260    0.2380    1.7640 H   0  0
    1.5850    1.0010    1.7910 H   0  0
    1.0030    1.2100    4.2240 H   0  0
    0.6510    3.8950    3.4690 H   0  0
   -1.0850    2.5130    4.8410 H   0  0
   -1.4950    0.9740    4.0890 H   0  0
   -1.5920    2.4630    3.1540 H   0  0
   -1.9200    2.5300   -0.6950 H   0  0
    1.5140    0.0320    0.1530 H   0  0
    1.4710   -0.8390   -2.1980 H   0  0
   -2.9710    2.4030   -3.2750 H   0  0
   -0.0150    0.6810   -6.5750 H   0  0
    0.2550   -2.3060   -3.4530 H   0  0
    1.1160   -0.8590   -8.1330 H   0  0
    1.3840   -3.8330   -5.0250 H   0  0
  1  2  1  0
  1  3  1  0
  2  4  2  0
  2  5  1  0
  4  6  1  0
  5  7  2  0
  6  8  2  0
  8  9  1  0
  9 10  1  0
  9 11  1  0
 10 12  1  0
 11 13  1  0
 11 14  1  0
 12 15  2  0
 12 16  1  0
 13 17  1  0
 15 18  1  0
 16 19  2  0
 17 20  2  0
 17 21  1  0
 18 22  2  0
 18 23  1  0
 21 24  1  0
 21 25  1  0
 21 26  1  0
 22 27  1  0
 23 28  2  0
 27 29  1  0
 29 30  2  0
 29 31  1  0
 30 32  1  0
 31 33  2  0
 32 34  2  0
 34 35  1  0
  7  8  1  0
 19 22  1  0
 27 28  1  0
 33 34  1  0
  3 36  1  0
  3 37  1  0
  3 38  1  0
  4 39  1  0
  5 40  1  0
  6 41  1  0
  7 42  1  0
  9 43  1  0
 11 44  1  0
 13 45  1  0
 14 46  1  0
 14 47  1  0
 14 48  1  0
 15 49  1  0
 16 50  1  0
 19 51  1  0
 23 52  1  0
 30 53  1  0
 31 54  1  0
 32 55  1  0
 33 56  1  0
M  END
> <Name>
CHEMBL3911831

> <IC50 nM>
0.03

> <Molecule_ChEMBL_ID>
CHEMBL3911831

> <Smiles>
CSc1ccc([C@@H](Oc2ccc3c(cnn3-c3ccc(F)cc3)c2)[C@H](C)NC(=O)C(F)(F)F)cc1

$$$$
CHEMBL3920760
  SciTegic08162514323D

 67 70  0  0  1  0            999 V2000
    6.3610    7.0280   -2.2730 F   0  0
    5.8730    5.7930   -2.1780 C   0  0
    4.8260    5.5180   -1.2810 C   0  0
    6.4040    4.7640   -2.9730 C   0  0
    4.3110    4.2150   -1.1800 C   0  0
    5.8910    3.4590   -2.8730 C   0  0
    4.8420    3.1820   -1.9770 C   0  0
    4.3440    1.9220   -1.8790 N   0  0
    5.0940    0.7660   -1.8550 N   0  0
    3.0370    1.5660   -1.7890 C   0  0
    4.3630   -0.4000   -1.7500 C   0  0
    3.1110    0.1880   -1.7150 C   0  0
    1.8140    2.2770   -1.7620 C   0  0
    1.9140   -0.5660   -1.6070 C   0  0
    0.6150    1.5270   -1.6540 C   0  0
    0.6660    0.1090   -1.5780 C   0  0
   -0.4730   -0.5940   -1.4750 O   0  0
   -0.4320   -1.8280   -0.7730 C   0  0  2  0  0  0
   -1.7810   -2.4510   -0.7930 C   0  0
    0.0550   -1.5860    0.6560 C   0  0  1  0  0  0
   -1.9100   -3.8520   -0.7620 C   0  0
   -2.9320   -1.6440   -0.8440 C   0  0
   -0.7600   -0.5590    1.3220 N   0  0
    0.1070   -2.8670    1.4860 C   0  0
   -3.1860   -4.4430   -0.7810 C   0  0
   -4.2070   -2.2340   -0.8630 C   0  0
   -0.2870    0.0410    2.4550 C   0  0
   -4.3340   -3.6350   -0.8320 C   0  0
    0.7910   -0.2690    2.9060 O   0  0
   -1.1330    1.0900    3.1250 C   0  0
   -5.6840   -4.2600   -0.8520 C   0  0
   -0.6880    2.1680    2.1390 C   0  0
   -0.6800    1.3770    4.5570 C   0  0
   -2.6270    0.7810    3.0290 C   0  0
   -6.4400   -4.0080    0.4530 C   0  0
    4.4140    6.3070   -0.6680 H   0  0
    7.2090    4.9710   -3.6640 H   0  0
    3.5040    4.0220   -0.4840 H   0  0
    6.3130    2.6820   -3.4940 H   0  0
    4.7150   -1.4240   -1.7130 H   0  0
    1.7890    3.3560   -1.8200 H   0  0
    1.9410   -1.6460   -1.5470 H   0  0
   -0.3360    2.0370   -1.6330 H   0  0
    0.2440   -2.5000   -1.3030 H   0  0
    1.0230   -1.0880    0.6520 H   0  0
   -1.0310   -4.4790   -0.7230 H   0  0
   -2.8400   -0.5680   -0.8690 H   0  0
   -1.6500   -0.3010    0.9510 H   0  0
    0.5920   -2.7090    2.4490 H   0  0
    0.6600   -3.6460    0.9590 H   0  0
   -0.8990   -3.2440    1.6780 H   0  0
   -3.2750   -5.5200   -0.7560 H   0  0
   -5.0860   -1.6090   -0.9020 H   0  0
   -6.2480   -3.8810   -1.7030 H   0  0
   -5.5860   -5.3280   -1.0410 H   0  0
   -0.9840    1.9320    1.1170 H   0  0
    0.3960    2.2810    2.1540 H   0  0
   -1.1270    3.1330    2.3970 H   0  0
   -0.8440    0.5240    5.2150 H   0  0
   -1.2270    2.2250    4.9710 H   0  0
    0.3830    1.6190    4.5840 H   0  0
   -2.8520   -0.2440    3.3240 H   0  0
   -2.9840    0.9200    2.0080 H   0  0
   -3.1990    1.4470    3.6760 H   0  0
   -6.5470   -2.9390    0.6350 H   0  0
   -7.4300   -4.4650    0.4180 H   0  0
   -5.9040   -4.4380    1.2990 H   0  0
  1  2  1  0
  2  3  2  0
  2  4  1  0
  3  5  1  0
  4  6  2  0
  5  7  2  0
  7  8  1  0
  8  9  1  0
  8 10  1  0
  9 11  2  0
 10 12  1  0
 10 13  2  0
 12 14  2  0
 13 15  1  0
 14 16  1  0
 16 17  1  0
 18 17  1  0
 18 19  1  0
 18 20  1  0
 19 21  2  0
 19 22  1  0
 20 23  1  0
 20 24  1  0
 21 25  1  0
 22 26  2  0
 23 27  1  0
 25 28  2  0
 27 29  2  0
 27 30  1  0
 28 31  1  0
 30 32  1  0
 30 33  1  0
 30 34  1  0
 31 35  1  0
  6  7  1  0
 11 12  1  0
 15 16  2  0
 26 28  1  0
  3 36  1  0
  4 37  1  0
  5 38  1  0
  6 39  1  0
 11 40  1  0
 13 41  1  0
 14 42  1  0
 15 43  1  0
 18 44  1  0
 20 45  1  0
 21 46  1  0
 22 47  1  0
 23 48  1  0
 24 49  1  0
 24 50  1  0
 24 51  1  0
 25 52  1  0
 26 53  1  0
 31 54  1  0
 31 55  1  0
 32 56  1  0
 32 57  1  0
 32 58  1  0
 33 59  1  0
 33 60  1  0
 33 61  1  0
 34 62  1  0
 34 63  1  0
 34 64  1  0
 35 65  1  0
 35 66  1  0
 35 67  1  0
M  END
> <Name>
CHEMBL3920760

> <IC50 nM>
0.05

> <Molecule_ChEMBL_ID>
CHEMBL3920760

> <Smiles>
CCc1ccc([C@@H](Oc2ccc3c(cnn3-c3ccc(F)cc3)c2)[C@H](C)NC(=O)C(C)(C)C)cc1

$$$$
CHEMBL4516396
  SciTegic08162514323D

 48 52  0  0  1  0            999 V2000
   -6.5160    3.7680    1.4730 F   0  0
   -5.5880    3.0370    0.8610 C   0  0
   -5.9280    1.7950    0.2970 C   0  0
   -4.2660    3.5060    0.7770 C   0  0
   -4.9490    1.0220   -0.3500 C   0  0
   -3.2830    2.7340    0.1310 C   0  0
   -3.6230    1.4900   -0.4340 C   0  0
   -2.6760    0.7440   -1.0590 N   0  0
   -2.8480    0.1190   -2.2540 N   0  0
   -1.4200    0.5080   -0.5960 C   0  0
   -1.7480   -0.5740   -2.6580 C   0  0
   -0.8980   -0.3090   -1.5860 C   0  0
   -0.6890    0.9400    0.6090 C   0  0
    0.5120   -0.8530   -1.4030 C   0  0
    0.6350    0.6880    0.6810 C   0  0
    1.4100    0.0550   -0.4860 C   0  0  1  0  0  0
    2.5390   -0.8120    0.0780 C   0  0
    1.9630    1.2440   -1.3200 C   0  0
    2.2310   -1.8100    1.1540 C   0  0
    3.8150   -0.7230   -0.3600 C   0  0
    3.1060    0.8240   -2.2460 C   0  0
    3.2780   -2.4220    1.8670 C   0  0
    0.8950   -2.1370    1.4510 C   0  0
    4.2620    0.2580   -1.4200 C   0  0
    2.9880   -3.3570    2.8770 C   0  0
    0.6080   -3.0720    2.4610 C   0  0
    1.6540   -3.6840    3.1720 C   0  0
   -6.9430    1.4320    0.3590 H   0  0
   -3.9980    4.4590    1.2090 H   0  0
   -5.2300    0.0700   -0.7780 H   0  0
   -2.2710    3.1110    0.0780 H   0  0
   -1.6190   -1.1540   -3.5630 H   0  0
   -1.1990    1.4450    1.4160 H   0  0
    0.9750   -1.0210   -2.3750 H   0  0
    0.3950   -1.8420   -0.9570 H   0  0
    1.1600    0.9470    1.5900 H   0  0
    2.3400    2.0290   -0.6620 H   0  0
    1.1660    1.7070   -1.9040 H   0  0
    4.5710   -1.3750    0.0560 H   0  0
    2.7620    0.0820   -2.9650 H   0  0
    3.4530    1.6780   -2.8300 H   0  0
    4.3070   -2.1780    1.6460 H   0  0
    0.0840   -1.6720    0.9100 H   0  0
    4.9880   -0.2230   -2.0760 H   0  0
    4.7870    1.0740   -0.9280 H   0  0
    3.7930   -3.8260    3.4240 H   0  0
   -0.4180   -3.3220    2.6870 H   0  0
    1.4340   -4.4020    3.9470 H   0  0
  1  2  1  0
  2  3  2  0
  2  4  1  0
  3  5  1  0
  4  6  2  0
  5  7  2  0
  7  8  1  0
  8  9  1  0
  8 10  1  0
  9 11  2  0
 10 12  2  0
 10 13  1  0
 12 14  1  0
 13 15  2  0
 16 14  1  0
 16 17  1  0
 16 18  1  0
 17 19  1  0
 17 20  2  0
 18 21  1  0
 19 22  2  0
 19 23  1  0
 20 24  1  0
 22 25  1  0
 23 26  2  0
 25 27  2  0
  6  7  1  0
 11 12  1  0
 15 16  1  0
 21 24  1  0
 26 27  1  0
  3 28  1  0
  4 29  1  0
  5 30  1  0
  6 31  1  0
 11 32  1  0
 13 33  1  0
 14 34  1  0
 14 35  1  0
 15 36  1  0
 18 37  1  0
 18 38  1  0
 20 39  1  0
 21 40  1  0
 21 41  1  0
 22 42  1  0
 23 43  1  0
 24 44  1  0
 24 45  1  0
 25 46  1  0
 26 47  1  0
 27 48  1  0
M  END
> <Name>
CHEMBL4516396

> <IC50 nM>
20

> <Molecule_ChEMBL_ID>
CHEMBL4516396

> <Smiles>
Fc1ccc(-n2ncc3c2C=C[C@]2(CCCC=C2c2ccccc2)C3)cc1

$$$$
CHEMBL219016
  SciTegic08162514323D

 53 54  0  0  1  0            999 V2000
    2.0100    2.0780   -1.1090 F   0  0
    0.6910    1.9040   -1.1520 C   0  0
    0.1480    0.6090   -1.0720 C   0  0
   -0.1600    3.0160   -1.2750 C   0  0
   -1.2440    0.4240   -1.1170 C   0  0
   -1.5530    2.8320   -1.3220 C   0  0
   -2.0980    1.5390   -1.2420 C   0  0
   -1.8010   -0.9530   -1.0310 C   0  0
   -3.5740    1.3630   -1.2910 C   0  0
   -0.8420   -1.3950    0.0740 C   0  0
   -1.5960   -1.7270   -2.3340 C   0  0
   -3.2620   -0.9430   -0.5760 C   0  0
   -1.0220   -0.5960    1.3650 C   0  0  1  0  0  0
   -1.1960    0.7600    1.0250 O   0  0
   -2.2400   -1.0470    2.1720 C   0  0
    0.1830   -0.7050    2.3010 C   0  0
   -1.8480   -1.3950    3.4380 F   0  0
   -2.8210   -2.1270    1.5590 F   0  0
   -3.1470   -0.0200    2.2420 F   0  0
    1.4390   -0.4690    1.5700 N   0  0
    2.0120    0.7910    1.5920 C   0  0
    2.0270   -1.5080    0.8750 C   0  0
    3.1640    1.0580    0.9360 C   0  0
    3.1820   -1.3420    0.1890 C   0  0
    3.8360   -0.0180    0.1780 C   0  0
    3.7580    2.4430    0.9820 C   0  0
    3.7930   -2.5000   -0.5570 C   0  0
    4.8690    0.1780   -0.4240 O   0  0
    0.8050   -0.2420   -0.9770 H   0  0
    0.2520    4.0120   -1.3380 H   0  0
   -2.2010    3.6910   -1.4180 H   0  0
   -4.0040    0.9140   -0.3950 H   0  0
   -3.8380    0.7280   -2.1390 H   0  0
   -4.0510    2.3320   -1.4390 H   0  0
   -0.9400   -2.4630    0.2660 H   0  0
    0.1910   -1.3440   -0.2700 H   0  0
   -0.5510   -1.7210   -2.6480 H   0  0
   -2.1880   -1.2910   -3.1390 H   0  0
   -1.9030   -2.7660   -2.2190 H   0  0
   -3.9280   -0.5860   -1.3590 H   0  0
   -3.3890   -0.2990    0.2930 H   0  0
   -3.5840   -1.9470   -0.2970 H   0  0
   -0.4650    1.2540    1.4300 H   0  0
    0.1030    0.0120    3.1170 H   0  0
    0.2210   -1.6880    2.7680 H   0  0
    1.5430    1.5980    2.1370 H   0  0
    1.5740   -2.4900    0.8650 H   0  0
    3.1460    3.1600    1.5310 H   0  0
    3.8910    2.8240   -0.0290 H   0  0
    4.7380    2.4100    1.4570 H   0  0
    3.1680   -3.3850   -0.4430 H   0  0
    3.9280   -2.2350   -1.6050 H   0  0
    4.7750   -2.7290   -0.1430 H   0  0
  1  2  1  0
  2  3  2  0
  2  4  1  0
  3  5  1  0
  4  6  2  0
  5  7  2  0
  5  8  1  0
  7  9  1  0
  8 10  1  0
  8 11  1  0
  8 12  1  0
 10 13  1  0
 13 14  1  0
 13 15  1  0
 13 16  1  0
 15 17  1  0
 15 18  1  0
 15 19  1  0
 16 20  1  0
 20 21  1  0
 20 22  1  0
 21 23  2  0
 22 24  2  0
 23 25  1  0
 23 26  1  0
 24 27  1  0
 25 28  2  0
  6  7  1  0
 24 25  1  0
  3 29  1  0
  4 30  1  0
  6 31  1  0
  9 32  1  0
  9 33  1  0
  9 34  1  0
 10 35  1  0
 10 36  1  0
 11 37  1  0
 11 38  1  0
 11 39  1  0
 12 40  1  0
 12 41  1  0
 12 42  1  0
 14 43  1  0
 16 44  1  0
 16 45  1  0
 21 46  1  0
 22 47  1  0
 26 48  1  0
 26 49  1  0
 26 50  1  0
 27 51  1  0
 27 52  1  0
 27 53  1  0
M  END
> <Name>
CHEMBL219016

> <IC50 nM>
125

> <Molecule_ChEMBL_ID>
CHEMBL219016

> <Smiles>
Cc1ccc(F)cc1C(C)(C)CC(O)(Cn1cc(C)c(=O)c(C)c1)C(F)(F)F

$$$$
CHEMBL196509
  SciTegic08162514323D

 46 50  0  0  1  0            999 V2000
    6.6210    1.8130    3.1190 F   0  0
    5.7070    1.2030    2.3690 C   0  0
    4.4160    0.9770    2.8790 C   0  0
    6.0290    0.7870    1.0660 C   0  0
    3.4490    0.3340    2.0880 C   0  0
    5.0650    0.1450    0.2730 C   0  0
    3.7720   -0.0840    0.7810 C   0  0
    2.8380   -0.7050    0.0160 N   0  0
    3.0680   -1.8130   -0.7400 N   0  0
    1.5390   -0.3280   -0.1150 C   0  0
    1.9690   -2.2340   -1.4240 C   0  0
    1.0550   -1.2720   -1.0060 C   0  0
    0.7340    0.7660    0.4630 C   0  0
   -0.4000   -1.1500   -1.4470 C   0  0
   -0.6050    0.7340    0.2770 C   0  0
   -1.2990   -0.4920   -0.3440 C   0  0  1  0  0  0
   -1.4730    1.9100    0.6620 C   0  0
   -2.6910   -0.0740   -0.9340 C   0  0
   -1.5000   -1.5290    0.7770 C   0  0
   -2.2890    2.4200   -0.5430 C   0  0
   -3.7300   -0.0740    0.0430 O   0  0
   -3.1620   -1.0180   -1.8890 O   0  0
   -2.6520    1.3260   -1.5740 C   0  0
   -4.6870   -1.0720   -0.2380 C   0  0
   -4.5470   -1.2150   -1.7420 C   0  0
    4.1640    1.2950    3.8810 H   0  0
    7.0200    0.9610    0.6700 H   0  0
    2.4630    0.1680    2.4980 H   0  0
    5.3320   -0.1680   -0.7270 H   0  0
    1.8810   -3.0820   -2.0900 H   0  0
    1.2070    1.5680    1.0100 H   0  0
   -0.4160   -0.5450   -2.3560 H   0  0
   -0.7770   -2.1370   -1.7250 H   0  0
   -0.8730    2.7210    1.0780 H   0  0
   -2.1440    1.5940    1.4590 H   0  0
   -0.5390   -1.8980    1.1370 H   0  0
   -2.0470   -1.0920    1.6130 H   0  0
   -2.0720   -2.3830    0.4160 H   0  0
   -3.2010    2.8910   -0.1700 H   0  0
   -1.7360    3.2110   -1.0530 H   0  0
   -3.5980    1.5780   -2.0590 H   0  0
   -1.9020    1.3280   -2.3650 H   0  0
   -4.3980   -1.9820    0.2710 H   0  0
   -5.6720   -0.7730    0.0900 H   0  0
   -5.0720   -0.4300   -2.2680 H   0  0
   -4.8460   -2.1780   -2.1290 H   0  0
  1  2  1  0
  2  3  2  0
  2  4  1  0
  3  5  1  0
  4  6  2  0
  5  7  2  0
  7  8  1  0
  8  9  1  0
  8 10  1  0
  9 11  2  0
 10 12  2  0
 10 13  1  0
 12 14  1  0
 13 15  2  0
 14 16  1  0
 15 17  1  0
 16 18  1  0
 16 19  1  0
 17 20  1  0
 18 21  1  0
 18 22  1  0
 18 23  1  0
 21 24  1  0
 22 25  1  0
  6  7  1  0
 11 12  1  0
 15 16  1  0
 20 23  1  0
 24 25  1  0
  3 26  1  0
  4 27  1  0
  5 28  1  0
  6 29  1  0
 11 30  1  0
 13 31  1  0
 14 32  1  0
 14 33  1  0
 17 34  1  0
 17 35  1  0
 19 36  1  0
 19 37  1  0
 19 38  1  0
 20 39  1  0
 20 40  1  0
 23 41  1  0
 23 42  1  0
 24 43  1  0
 24 44  1  0
 25 45  1  0
 25 46  1  0
M  END
> <Name>
CHEMBL196509

> <IC50 nM>
14

> <Molecule_ChEMBL_ID>
CHEMBL196509

> <Smiles>
C[C@]12Cc3cnn(-c4ccc(F)cc4)c3C=C1CCCC21OCCO1

$$$$
CHEMBL216273
  SciTegic08162514323D

 58 59  0  0  1  0            999 V2000
    2.2770    6.4590    0.9940 F   0  0
    1.2890    5.5760    1.1230 C   0  0
    1.5570    4.1990    1.0230 C   0  0
   -0.0240    6.0200    1.3550 C   0  0
    0.5120    3.2680    1.1580 C   0  0
   -1.0670    5.0900    1.4900 C   0  0
   -0.8050    3.7110    1.3910 C   0  0
    0.8070    1.8120    1.0510 C   0  0
   -1.7910    2.8480    1.5190 O   0  0
    0.2600    1.6910   -0.3710 C   0  0
    0.0020    1.0000    2.0640 C   0  0
    2.3090    1.5350    1.1310 C   0  0
   -3.1210    3.3440    1.4920 C   0  0
    0.6250    0.3630   -1.0330 C   0  0  3  0  0  0
    2.0020    0.3830   -1.3340 O   0  0
   -0.1500    0.3030   -2.3500 C   0  0
    0.3500   -0.8420   -0.1310 C   0  0
    0.0310    1.4730   -3.0410 F   0  0
   -1.4840    0.1290   -2.0860 F   0  0
    0.3070   -0.7480   -3.1020 F   0  0
    0.3630   -2.0760   -0.9080 N   0  0
    1.4470   -2.9790   -0.4840 C   0  0
   -0.9730   -2.6880   -1.0470 C   0  0
    1.2170   -4.4420   -0.9100 C   0  0  1  0  0  0
   -1.1740   -3.9060   -0.1230 C   0  0  2  0  0  0
   -0.1000   -4.9450   -0.3650 C   0  0
    1.2770   -4.6170   -2.4320 C   0  0
   -2.5760   -4.5000   -0.3010 C   0  0
   -0.2770   -6.1190   -0.1330 O   0  0
    2.5660    3.8590    0.8440 H   0  0
   -0.2340    7.0780    1.4340 H   0  0
   -2.0740    5.4360    1.6700 H   0  0
    0.5880    2.5310   -0.9840 H   0  0
   -0.8200    1.8440   -0.3830 H   0  0
   -0.1150    1.5290    3.0100 H   0  0
    0.4920    0.0510    2.2730 H   0  0
   -0.9940    0.7810    1.6800 H   0  0
    2.7540    1.9670    2.0270 H   0  0
    2.8240    1.9570    0.2670 H   0  0
    2.5020    0.4630    1.1440 H   0  0
   -3.2850    3.9280    2.3980 H   0  0
   -3.2700    3.8670    0.5470 H   0  0
   -3.8030    2.4940    1.5140 H   0  0
    2.2070   -0.4470   -1.7910 H   0  0
   -0.6130   -0.7360    0.3690 H   0  0
    1.0940   -0.9040    0.6640 H   0  0
    2.3930   -2.6110   -0.8870 H   0  0
    1.5430   -2.9470    0.6010 H   0  0
   -1.1000   -2.9960   -2.0860 H   0  0
   -1.7500   -1.9430   -0.8650 H   0  0
    2.0160   -5.0450   -0.4770 H   0  0
   -1.0860   -3.5720    0.9120 H   0  0
    1.1290   -5.6560   -2.7270 H   0  0
    2.2460   -4.2990   -2.8190 H   0  0
    0.5100   -4.0200   -2.9200 H   0  0
   -2.7400   -5.3560    0.3530 H   0  0
   -2.7230   -4.8340   -1.3280 H   0  0
   -3.3400   -3.7580   -0.0800 H   0  0
  1  2  1  0
  2  3  2  0
  2  4  1  0
  3  5  1  0
  4  6  2  0
  5  7  2  0
  5  8  1  0
  7  9  1  0
  8 10  1  0
  8 11  1  0
  8 12  1  0
  9 13  1  0
 10 14  1  0
 14 15  1  0
 14 16  1  0
 14 17  1  0
 16 18  1  0
 16 19  1  0
 16 20  1  0
 17 21  1  0
 21 22  1  0
 21 23  1  0
 22 24  1  0
 23 25  1  0
 24 26  1  0
 24 27  1  0
 25 28  1  0
 26 29  2  0
  6  7  1  0
 25 26  1  0
  3 30  1  0
  4 31  1  0
  6 32  1  0
 10 33  1  0
 10 34  1  0
 11 35  1  0
 11 36  1  0
 11 37  1  0
 12 38  1  0
 12 39  1  0
 12 40  1  0
 13 41  1  0
 13 42  1  0
 13 43  1  0
 15 44  1  0
 17 45  1  0
 17 46  1  0
 22 47  1  0
 22 48  1  0
 23 49  1  0
 23 50  1  0
 24 51  1  0
 25 52  1  0
 27 53  1  0
 27 54  1  0
 27 55  1  0
 28 56  1  0
 28 57  1  0
 28 58  1  0
M  END
> <Name>
CHEMBL216273

> <IC50 nM>
10

> <Molecule_ChEMBL_ID>
CHEMBL216273

> <Smiles>
COc1ccc(F)cc1C(C)(C)CC(O)(CN1C[C@@H](C)C(=O)[C@@H](C)C1)C(F)(F)F

$$$$
CHEMBL435753
  SciTegic08162514323D

 45 46  0  0  1  0            999 V2000
    1.6910   -0.0240    3.9440 F   0  0
    1.3470   -0.7800    2.9040 C   0  0
    1.4170   -0.2580    1.6000 C   0  0
    0.9140   -2.1010    3.1080 C   0  0
    1.0550   -1.0570    0.5010 C   0  0
    0.5510   -2.8990    2.0090 C   0  0
    0.6200   -2.3820    0.7040 C   0  0
    1.1330   -0.4940   -0.8740 C   0  0
    0.2770   -3.1390   -0.3190 O   0  0
   -0.3730   -0.5900   -1.1210 C   0  0
    1.9420   -1.3970   -1.8060 C   0  0
    1.6390    0.9490   -0.8630 C   0  0
    0.1540   -4.5370   -0.1020 C   0  0
   -1.0760    0.7630   -1.0090 C   0  0  1  0  0  0
   -0.3990    1.6820   -1.8360 O   0  0
   -2.4870    0.5690   -1.5650 C   0  0
   -1.0750    1.3130    0.4180 C   0  0
   -2.4130    0.2300   -2.8920 F   0  0
   -3.1960    1.7340   -1.4300 F   0  0
   -3.1170   -0.4330   -0.8730 F   0  0
   -1.1760    2.7800    0.4180 N   0  0
   -2.3180    3.5210    0.4180 C   0  0
   -0.1550    3.6640    0.4180 C   0  0
   -2.0340    4.8530    0.4180 N   0  0
   -0.6880    4.9500    0.4180 C   0  0
    1.7510    0.7580    1.4450 H   0  0
    0.8580   -2.5070    4.1070 H   0  0
    0.2190   -3.9140    2.1700 H   0  0
   -0.8280   -1.3170   -0.4490 H   0  0
   -0.5770   -1.0510   -2.0870 H   0  0
    2.9360   -1.6030   -1.4100 H   0  0
    2.0640   -0.9300   -2.7840 H   0  0
    1.4360   -2.3510   -1.9530 H   0  0
    2.6420    1.0240   -0.4430 H   0  0
    0.9800    1.5830   -0.2710 H   0  0
    1.6700    1.3530   -1.8750 H   0  0
   -0.0880   -5.0100   -1.0530 H   0  0
    1.0590   -4.8870    0.3950 H   0  0
   -0.6840   -4.7040    0.5760 H   0  0
   -1.0450    2.3520   -2.1080 H   0  0
   -0.1450    1.0120    0.9000 H   0  0
   -1.9000    0.8920    0.9940 H   0  0
   -3.3180    3.1090    0.4180 H   0  0
    0.8910    3.3830    0.4180 H   0  0
   -0.1520    5.8900    0.4180 H   0  0
  1  2  1  0
  2  3  2  0
  2  4  1  0
  3  5  1  0
  4  6  2  0
  5  7  2  0
  5  8  1  0
  7  9  1  0
  8 10  1  0
  8 11  1  0
  8 12  1  0
  9 13  1  0
 10 14  1  0
 14 15  1  0
 14 16  1  0
 14 17  1  0
 16 18  1  0
 16 19  1  0
 16 20  1  0
 17 21  1  0
 21 22  1  0
 21 23  1  0
 22 24  2  0
 23 25  2  0
  6  7  1  0
 24 25  1  0
  3 26  1  0
  4 27  1  0
  6 28  1  0
 10 29  1  0
 10 30  1  0
 11 31  1  0
 11 32  1  0
 11 33  1  0
 12 34  1  0
 12 35  1  0
 12 36  1  0
 13 37  1  0
 13 38  1  0
 13 39  1  0
 15 40  1  0
 17 41  1  0
 17 42  1  0
 22 43  1  0
 23 44  1  0
 25 45  1  0
M  END
> <Name>
CHEMBL435753

> <IC50 nM>
2000

> <Molecule_ChEMBL_ID>
CHEMBL435753

> <Smiles>
COc1ccc(F)cc1C(C)(C)CC(O)(Cn1ccnc1)C(F)(F)F

$$$$
CHEMBL483095
  SciTegic08162514323D

 67 70  0  0  1  0            999 V2000
    4.5900    1.9590   -1.4100 S   0  0
    3.3770    1.7360   -0.0800 C   0  0
    4.4810    3.7620   -1.5840 C   0  0
    3.3930    0.3030    0.3770 C   0  0
    3.1990    4.1660   -2.3150 C   0  0
    4.2480   -0.1040    1.1290 O   0  0
    2.3050   -0.6150   -0.1310 C   0  0  2  0  0  0
    3.1000    5.6520   -2.5220 C   0  0
    2.1720   -0.3650   -1.5220 O   0  0
    0.9400   -0.4490    0.5820 C   0  0  2  0  0  0
    2.6000   -2.1170    0.1170 C   0  0  1  0  0  0
    3.9670    6.3970   -2.1230 O   0  0
    2.0060    6.1540   -3.1680 N   0  0
    0.1950   -1.7030    0.0820 C   0  0  1  0  0  0
    0.0940    0.7990    0.2500 C   0  0
    1.2070   -0.5270    2.0960 C   0  0
    1.2340   -2.8070    0.2850 C   0  0
    3.4630   -2.8070   -0.9410 C   0  0
   -1.1700   -1.8540    0.7770 C   0  0  1  0  0  0
   -1.3570    0.7070    0.7910 C   0  0  1  0  0  0
   -2.0590   -0.6290    0.3960 C   0  0  1  0  0  0
   -1.8570   -3.2250    0.5550 C   0  0
   -1.3550    0.8790    2.1950 O   0  0
   -2.1500   -0.5550   -0.9810 F   0  0
   -3.5140   -0.8440    0.9240 C   0  0  2  0  0  0
   -3.1800   -3.1760   -0.2270 C   0  0
   -4.1090   -2.0510    0.1890 C   0  0
   -4.4020    0.3910    0.7990 C   0  0
   -3.5180   -1.1910    2.4180 C   0  0
   -5.4220   -2.1250   -0.1130 C   0  0
   -5.7050    0.3090    0.4630 C   0  0
   -6.3140   -0.9820    0.1230 C   0  0
   -7.5140   -1.1000    0.0230 O   0  0
    3.6290    2.3930    0.7540 H   0  0
    2.3850    1.9980   -0.4450 H   0  0
    5.3600    4.1310   -2.1150 H   0  0
    4.5260    4.2270   -0.6000 H   0  0
    2.3770    3.8220   -1.6880 H   0  0
    3.1250    3.6520   -3.2740 H   0  0
    3.0490   -0.4880   -1.9200 H   0  0
    3.1230   -2.2150    1.0610 H   0  0
    1.2770    5.5590   -3.5060 H   0  0
    1.9160    7.1390   -3.3180 H   0  0
    0.0220   -1.6310   -0.9820 H   0  0
    0.0390    0.9260   -0.8320 H   0  0
    0.5880    1.6970    0.6230 H   0  0
    0.2870   -0.6560    2.6640 H   0  0
    1.6930    0.3830    2.4470 H   0  0
    1.8630   -1.3670    2.3260 H   0  0
    1.1500   -3.2290    1.2770 H   0  0
    1.0860   -3.6150   -0.4160 H   0  0
    3.6880   -3.8320   -0.6490 H   0  0
    2.9550   -2.8150   -1.9060 H   0  0
    4.4100   -2.2810   -1.0680 H   0  0
   -0.9860   -1.8050    1.8520 H   0  0
   -1.9120    1.5550    0.3890 H   0  0
   -2.0660   -3.6620    1.5310 H   0  0
   -1.1820   -3.9300    0.0680 H   0  0
   -2.0330    1.5390    2.4040 H   0  0
   -3.6890   -4.1350   -0.1290 H   0  0
   -2.9570   -3.0590   -1.2870 H   0  0
   -3.9940    1.3710    0.9900 H   0  0
   -4.5120   -1.4670    2.7710 H   0  0
   -3.1780   -0.3420    3.0120 H   0  0
   -2.8480   -2.0270    2.6210 H   0  0
   -5.8260   -3.0250   -0.5490 H   0  0
   -6.3090    1.2050    0.4390 H   0  0
  1  2  1  0
  1  3  1  0
  2  4  1  0
  3  5  1  0
  4  6  2  0
  4  7  1  0
  5  8  1  0
  7  9  1  0
  7 10  1  0
  7 11  1  0
  8 12  2  0
  8 13  1  0
 10 14  1  0
 10 15  1  0
 10 16  1  0
 11 17  1  0
 11 18  1  0
 14 19  1  0
 15 20  1  0
 19 21  1  0
 19 22  1  0
 20 23  1  0
 21 24  1  0
 21 25  1  0
 22 26  1  0
 25 27  1  0
 25 28  1  0
 25 29  1  0
 27 30  2  0
 28 31  2  0
 30 32  1  0
 32 33  2  0
 14 17  1  0
 20 21  1  0
 26 27  1  0
 31 32  1  0
  2 34  1  0
  2 35  1  0
  3 36  1  0
  3 37  1  0
  5 38  1  0
  5 39  1  0
  9 40  1  0
 11 41  1  0
 13 42  1  0
 13 43  1  0
 14 44  1  0
 15 45  1  0
 15 46  1  0
 16 47  1  0
 16 48  1  0
 16 49  1  0
 17 50  1  0
 17 51  1  0
 18 52  1  0
 18 53  1  0
 18 54  1  0
 19 55  1  0
 20 56  1  0
 22 57  1  0
 22 58  1  0
 23 59  1  0
 26 60  1  0
 26 61  1  0
 28 62  1  0
 29 63  1  0
 29 64  1  0
 29 65  1  0
 30 66  1  0
 31 67  1  0
M  END
> <Name>
CHEMBL483095

> <IC50 nM>
36

> <Molecule_ChEMBL_ID>
CHEMBL483095

> <Smiles>
C[C@@H]1C[C@H]2[C@@H]3CCC4=CC(=O)C=C[C@]4(C)[C@@]3(F)[C@@H](O)C[C@]2(C)[C@@]1(O)C(=O)CSCCC(N)=O

$$$$
CHEMBL4212650
  SciTegic08162514323D

 57 60  0  0  1  0            999 V2000
    4.9570    6.9670   -1.6060 S   0  0
    4.5240    6.8030    0.0430 C   0  0
    4.7460    5.3220   -1.9260 C   0  0
    4.2130    5.5100    0.3790 N   0  0
    4.3460    4.7290   -0.7310 C   0  0
    4.0900    3.4000   -0.6430 N   0  0
    4.8610    2.2680   -0.6210 N   0  0
    2.7740    3.1020   -0.5550 C   0  0
    4.1000    1.1170   -0.5160 C   0  0
    2.8460    1.7210   -0.4810 C   0  0
    1.5550    3.8200   -0.5290 C   0  0
    1.6450    0.9730   -0.3730 C   0  0
    0.3560    3.0720   -0.4220 C   0  0
    0.3980    1.6540   -0.3440 C   0  0
   -0.7400    0.9570   -0.2420 O   0  0
   -0.6560   -0.4000    0.1660 C   0  0  2  0  0  0
   -0.2710   -1.2440   -0.9960 C   0  0
   -1.9960   -0.8380    0.7600 C   0  0  1  0  0  0
    0.5610   -2.3630   -0.8110 C   0  0
   -0.7420   -0.9260   -2.2830 C   0  0
   -1.9120   -2.2030    1.2990 N   0  0
   -2.5180    0.1370    1.8160 C   0  0
    0.9240   -3.1600   -1.9100 C   0  0
   -0.3790   -1.7230   -3.3830 C   0  0
   -2.6390   -3.2010    0.7130 C   0  0
   -3.8950   -0.2580    2.3530 C   0  0
   -1.5040    0.3980    2.9300 C   0  0
    0.4530   -2.8400   -3.1960 C   0  0
   -3.3460   -2.9630   -0.2380 O   0  0
   -2.5430   -4.5940    1.2770 C   0  0
   -1.2520   -5.0510    1.2050 F   0  0
   -2.9610   -4.6130    2.5820 F   0  0
   -3.4490   -5.4920    0.4350 C   0  0
    4.4900    7.6110    0.7620 H   0  0
    4.8970    4.8440   -2.8870 H   0  0
    4.4300    0.0880   -0.4770 H   0  0
    1.5330    4.8980   -0.5880 H   0  0
    1.6680   -0.1070   -0.3150 H   0  0
   -0.5960    3.5860   -0.4010 H   0  0
    0.1070   -0.4790    0.9390 H   0  0
   -2.7830   -0.7970    0.0080 H   0  0
    0.9240   -2.6130    0.1740 H   0  0
   -1.3810   -0.0680   -2.4340 H   0  0
   -1.3280   -2.4020    2.0860 H   0  0
   -2.5330    1.1540    1.4280 H   0  0
    1.5630   -4.0180   -1.7680 H   0  0
   -0.7380   -1.4770   -4.3710 H   0  0
   -4.2890    0.4860    3.0430 H   0  0
   -3.8440   -1.2090    2.8830 H   0  0
   -4.6090   -0.3690    1.5370 H   0  0
   -1.9160    1.0840    3.6720 H   0  0
   -1.2210   -0.5310    3.4220 H   0  0
   -0.5980    0.8520    2.5250 H   0  0
    0.7320   -3.4530   -4.0410 H   0  0
   -3.4340   -6.5260    0.7850 H   0  0
   -3.1370   -5.4880   -0.6080 H   0  0
   -4.4820   -5.1430    0.4760 H   0  0
  1  2  1  0
  1  3  1  0
  2  4  2  0
  3  5  2  0
  5  6  1  0
  6  7  1  0
  6  8  1  0
  7  9  2  0
  8 10  1  0
  8 11  2  0
 10 12  2  0
 11 13  1  0
 12 14  1  0
 14 15  1  0
 16 15  1  0
 16 17  1  0
 16 18  1  0
 17 19  2  0
 17 20  1  0
 18 21  1  0
 18 22  1  0
 19 23  1  0
 20 24  2  0
 21 25  1  0
 22 26  1  0
 22 27  1  0
 23 28  2  0
 25 29  2  0
 25 30  1  0
 30 31  1  0
 30 32  1  0
 30 33  1  0
  4  5  1  0
  9 10  1  0
 13 14  2  0
 24 28  1  0
  2 34  1  0
  3 35  1  0
  9 36  1  0
 11 37  1  0
 12 38  1  0
 13 39  1  0
 16 40  1  0
 18 41  1  0
 19 42  1  0
 20 43  1  0
 21 44  1  0
 22 45  1  0
 23 46  1  0
 24 47  1  0
 26 48  1  0
 26 49  1  0
 26 50  1  0
 27 51  1  0
 27 52  1  0
 27 53  1  0
 28 54  1  0
 33 55  1  0
 33 56  1  0
 33 57  1  0
M  END
> <Name>
CHEMBL4212650

> <IC50 nM>
52

> <Molecule_ChEMBL_ID>
CHEMBL4212650

> <Smiles>
CC(C)[C@H](NC(=O)C(C)(F)F)[C@H](Oc1ccc2c(cnn2-c2cscn2)c1)c1ccccc1

$$$$
CHEMBL4208798
  SciTegic08162514323D

 64 67  0  0  1  0            999 V2000
    5.5410    8.3970   -0.7730 F   0  0
    5.0550    7.1620   -0.6780 C   0  0
    4.0140    6.8850    0.2250 C   0  0
    5.5780    6.1350   -1.4820 C   0  0
    3.4980    5.5820    0.3260 C   0  0
    5.0650    4.8300   -1.3830 C   0  0
    4.0220    4.5510   -0.4760 C   0  0
    3.5240    3.2910   -0.3790 N   0  0
    4.2740    2.1350   -0.3550 N   0  0
    2.2170    2.9360   -0.2890 C   0  0
    3.5450    0.9690   -0.2520 C   0  0
    2.2910    1.5570   -0.2150 C   0  0
    0.9940    3.6470   -0.2640 C   0  0
    1.0960    0.8030   -0.1070 C   0  0
   -0.2030    2.8970   -0.1560 C   0  0
   -0.1540    1.4790   -0.0780 C   0  0
   -1.2910    0.7750    0.0240 O   0  0
   -1.1990   -0.5880    0.4080 C   0  0  2  0  0  0
   -0.8220   -1.4100   -0.7710 C   0  0
   -2.5310   -1.0390    1.0060 C   0  0  1  0  0  0
    0.0060   -2.5390   -0.6150 C   0  0
   -1.2870   -1.0700   -2.0530 C   0  0
   -2.4590   -2.4360    1.4630 N   0  0
   -3.0170   -0.1210    2.1270 C   0  0
    0.3630   -3.3090   -1.6850 N   0  0
   -0.9120   -1.8690   -3.1460 C   0  0
   -3.4980   -3.2810    1.1990 C   0  0
   -4.4320   -0.4610    2.5980 C   0  0
   -2.0190   -0.0210    3.2810 C   0  0
   -0.0800   -2.9880   -2.9370 C   0  0
   -4.4690   -2.8890    0.5960 O   0  0
   -3.4060   -4.7070    1.6740 C   0  0
    0.2740   -3.7380   -3.9610 O   0  0
   -3.0270   -4.7520    2.9920 F   0  0
   -4.6110   -5.3420    1.5240 F   0  0
   -2.3510   -5.4080    0.8180 C   0  0
    0.9770   -4.9430   -3.6930 C   0  0
    3.6080    7.6720    0.8440 H   0  0
    6.3770    6.3440   -2.1780 H   0  0
    2.6970    5.3890    1.0270 H   0  0
    5.4810    4.0550   -2.0080 H   0  0
    3.8970   -0.0550   -0.2130 H   0  0
    0.9710    4.7250   -0.3220 H   0  0
    1.1210   -0.2770   -0.0490 H   0  0
   -1.1540    3.4060   -0.1330 H   0  0
   -0.3960   -0.6840    1.1390 H   0  0
   -3.1970   -0.9790    0.1430 H   0  0
    0.3670   -2.8070    0.3670 H   0  0
   -1.9240   -0.2090   -2.1990 H   0  0
   -1.6560   -2.7620    1.9610 H   0  0
   -3.0170    0.7950    1.5370 H   0  0
   -1.2580   -1.6250   -4.1390 H   0  0
   -5.1250   -0.5550    1.7640 H   0  0
   -4.8120    0.3140    3.2620 H   0  0
   -4.4390   -1.4020    3.1470 H   0  0
   -1.0410    0.3180    2.9430 H   0  0
   -1.8870   -0.9900    3.7620 H   0  0
   -2.3730    0.6800    4.0370 H   0  0
   -2.2460   -6.4610    1.0820 H   0  0
   -1.3770   -4.9340    0.9420 H   0  0
   -2.6150   -5.3560   -0.2380 H   0  0
    1.9530   -4.6840   -3.2870 H   0  0
    0.3460   -5.5740   -3.0660 H   0  0
    1.1350   -5.4630   -4.6370 H   0  0
  1  2  1  0
  2  3  2  0
  2  4  1  0
  3  5  1  0
  4  6  2  0
  5  7  2  0
  7  8  1  0
  8  9  1  0
  8 10  1  0
  9 11  2  0
 10 12  1  0
 10 13  2  0
 12 14  2  0
 13 15  1  0
 14 16  1  0
 16 17  1  0
 18 17  1  0
 18 19  1  0
 18 20  1  0
 19 21  2  0
 19 22  1  0
 20 23  1  0
 20 24  1  0
 21 25  1  0
 22 26  2  0
 23 27  1  0
 24 28  1  0
 24 29  1  0
 25 30  2  0
 27 31  2  0
 27 32  1  0
 30 33  1  0
 32 34  1  0
 32 35  1  0
 32 36  1  0
 33 37  1  0
  6  7  1  0
 11 12  1  0
 15 16  2  0
 26 30  1  0
  3 38  1  0
  4 39  1  0
  5 40  1  0
  6 41  1  0
 11 42  1  0
 13 43  1  0
 14 44  1  0
 15 45  1  0
 18 46  1  0
 20 47  1  0
 21 48  1  0
 22 49  1  0
 23 50  1  0
 24 51  1  0
 26 52  1  0
 28 53  1  0
 28 54  1  0
 28 55  1  0
 29 56  1  0
 29 57  1  0
 29 58  1  0
 36 59  1  0
 36 60  1  0
 36 61  1  0
 37 62  1  0
 37 63  1  0
 37 64  1  0
M  END
> <Name>
CHEMBL4208798

> <IC50 nM>
18

> <Molecule_ChEMBL_ID>
CHEMBL4208798

> <Smiles>
COc1ccc([C@@H](Oc2ccc3c(cnn3-c3ccc(F)cc3)c2)[C@@H](NC(=O)C(C)(F)F)C(C)C)cn1

$$$$
CHEMBL4214015
  SciTegic08162514323D

 46 47  0  0  1  0            999 V2000
    3.0390   -5.4060   -0.8420 Cl  0  0
    2.5760   -3.8130   -1.3070 C   0  0
    3.4850   -2.8930   -1.8810 C   0  0
    1.2380   -3.4160   -1.1020 C   0  0
    4.8630   -3.2480   -2.1110 C   0  0
    3.0570   -1.6020   -2.2440 C   0  0
    0.8090   -2.1270   -1.4610 C   0  0
    5.9730   -3.5310   -2.2950 N   0  0
    1.7210   -1.2230   -2.0330 C   0  0
   -0.4450   -1.7680   -1.2660 O   0  0
   -0.7150   -0.3960   -1.0120 C   0  0  2  0  0  0
    0.1680    0.0880    0.0800 C   0  0
   -2.1930   -0.2250   -0.6620 C   0  0  1  0  0  0
    0.3420   -0.6800    1.2480 C   0  0
    0.8360    1.3180   -0.0390 C   0  0
   -2.5610    1.1990   -0.6170 N   0  0
   -3.1170   -1.0000   -1.6020 C   0  0
    1.1470   -0.2540    2.2640 N   0  0
    1.6620    1.7460    1.0140 C   0  0
   -2.4180    1.8910    0.5510 C   0  0
    1.8030    0.9410    2.1600 C   0  0
   -1.9940    1.3400    1.5410 O   0  0
   -2.7990    3.3480    0.5800 C   0  0
    2.5780    1.3420    3.1490 O   0  0
   -2.4200    3.9200    1.7660 F   0  0
   -2.2110    4.0180   -0.4610 F   0  0
   -4.3200    3.4240    0.4410 C   0  0
    2.8010    0.4430    4.2270 C   0  0
    0.5270   -4.1020   -0.6620 H   0  0
    3.7400   -0.8890   -2.6860 H   0  0
    1.3930   -0.2300   -2.3110 H   0  0
   -0.4630    0.1700   -1.9080 H   0  0
   -2.3770   -0.5020    0.3750 H   0  0
   -0.1700   -1.6270    1.3480 H   0  0
    0.7190    1.9260   -0.9260 H   0  0
   -2.9120    1.6560   -1.4340 H   0  0
   -4.1680   -0.8460   -1.3570 H   0  0
   -2.9140   -2.0680   -1.5450 H   0  0
   -2.9650   -0.6870   -2.6350 H   0  0
    2.1860    2.6900    0.9400 H   0  0
   -4.6820    4.4510    0.4880 H   0  0
   -4.8090    2.8610    1.2360 H   0  0
   -4.6430    3.0020   -0.5120 H   0  0
    1.8540    0.2850    4.7400 H   0  0
    3.2910   -0.4470    3.8320 H   0  0
    3.4860    0.9180    4.9280 H   0  0
  1  2  1  0
  2  3  2  0
  2  4  1  0
  3  5  1  0
  3  6  1  0
  4  7  2  0
  5  8  3  0
  6  9  2  0
  7 10  1  0
 11 10  1  0
 11 12  1  0
 11 13  1  0
 12 14  2  0
 12 15  1  0
 13 16  1  0
 13 17  1  0
 14 18  1  0
 15 19  2  0
 16 20  1  0
 18 21  2  0
 20 22  2  0
 20 23  1  0
 21 24  1  0
 23 25  1  0
 23 26  1  0
 23 27  1  0
 24 28  1  0
  7  9  1  0
 19 21  1  0
  4 29  1  0
  6 30  1  0
  9 31  1  0
 11 32  1  0
 13 33  1  0
 14 34  1  0
 15 35  1  0
 16 36  1  0
 17 37  1  0
 17 38  1  0
 17 39  1  0
 19 40  1  0
 27 41  1  0
 27 42  1  0
 27 43  1  0
 28 44  1  0
 28 45  1  0
 28 46  1  0
M  END
> <Name>
CHEMBL4214015

> <IC50 nM>
9.3

> <Molecule_ChEMBL_ID>
CHEMBL4214015

> <Smiles>
COc1ccc([C@@H](Oc2ccc(C#N)c(Cl)c2)[C@H](C)NC(=O)C(C)(F)F)cn1

$$$$
CHEMBL3126945
  SciTegic08162514323D

 51 54  0  0  1  0            999 V2000
    1.9840    4.9320    1.2010 Cl  0  0
    0.5530    4.0270    0.9370 C   0  0
    0.5700    2.6210    1.0350 C   0  0
   -0.6580    4.6820    0.6190 C   0  0
   -0.6210    1.8920    0.8120 C   0  0
   -1.8500    3.9410    0.3980 C   0  0
   -1.8440    2.5430    0.4920 C   0  0
   -0.5960    0.4260    0.9160 C   0  0
   -3.2420    4.4000    0.0530 C   0  0
   -3.0430    2.0160    0.2560 O   0  0
    0.6090   -0.1700    0.1850 C   0  0
   -1.9200   -0.1930    0.4710 C   0  0
   -0.4240    0.4220    2.4360 C   0  0
   -4.0060    3.0450   -0.0330 C   0  0
    0.3830   -0.2930   -1.3220 C   0  0  1  0  0  0
   -0.8150   -1.0060   -1.5310 O   0  0
    0.1910    1.1270   -1.8520 C   0  0
    1.5140   -1.0410   -2.0290 C   0  0
    1.0760    1.9710   -1.2310 F   0  0
   -1.0900    1.5430   -1.5980 F   0  0
    0.4180    1.1440   -3.2030 F   0  0
    1.8010   -2.3650   -1.3560 C   0  0
    2.7680   -2.5450   -0.3650 N   0  0
    1.1970   -3.6110   -1.5680 C   0  0
    2.7110   -3.8810   -0.0240 C   0  0
    1.7420   -4.5630   -0.7560 C   0  0
    3.4370   -4.6530    0.9100 C   0  0
    1.4780   -5.9160   -0.6080 N   0  0
    3.2270   -6.0060    1.1110 N   0  0
    2.2360   -6.6130    0.3360 C   0  0
    1.4840    2.0980    1.2770 H   0  0
   -0.6910    5.7580    0.5390 H   0  0
   -3.2500    4.9300   -0.8890 H   0  0
   -3.6390    5.0410    0.8260 H   0  0
    0.8830   -1.1330    0.6150 H   0  0
    1.5100    0.4080    0.3940 H   0  0
   -2.7250    0.0170    1.1760 H   0  0
   -1.8300   -1.2760    0.3830 H   0  0
   -2.2210    0.1950   -0.5020 H   0  0
   -1.1900    1.0350    2.9100 H   0  0
   -0.4880   -0.5920    2.8280 H   0  0
    0.5490    0.8280    2.7150 H   0  0
   -4.8070    2.9840    0.6910 H   0  0
   -4.4160    2.8730   -1.0180 H   0  0
   -0.6660   -1.9140   -1.2210 H   0  0
    2.4220   -0.4380   -2.0450 H   0  0
    1.2680   -1.2110   -3.0760 H   0  0
    3.3710   -1.8540    0.0160 H   0  0
    0.4040   -3.7910   -2.2830 H   0  0
    4.1970   -4.1640    1.5020 H   0  0
    2.0490   -7.6680    0.4690 H   0  0
  1  2  1  0
  2  3  2  0
  2  4  1  0
  3  5  1  0
  4  6  2  0
  5  7  2  0
  5  8  1  0
  6  9  1  0
  7 10  1  0
  8 11  1  0
  8 12  1  0
  8 13  1  0
  9 14  1  0
 11 15  1  0
 15 16  1  0
 15 17  1  0
 15 18  1  0
 17 19  1  0
 17 20  1  0
 17 21  1  0
 18 22  1  0
 22 23  1  0
 22 24  2  0
 23 25  1  0
 24 26  1  0
 25 27  1  0
 26 28  1  0
 27 29  2  0
 28 30  2  0
  6  7  1  0
 10 14  1  0
 25 26  2  0
 29 30  1  0
  3 31  1  0
  4 32  1  0
  9 33  1  0
  9 34  1  0
 11 35  1  0
 11 36  1  0
 12 37  1  0
 12 38  1  0
 12 39  1  0
 13 40  1  0
 13 41  1  0
 13 42  1  0
 14 43  1  0
 14 44  1  0
 16 45  1  0
 18 46  1  0
 18 47  1  0
 23 48  1  0
 24 49  1  0
 27 50  1  0
 30 51  1  0
M  END
> <Name>
CHEMBL3126945

> <IC50 nM>
5

> <Molecule_ChEMBL_ID>
CHEMBL3126945

> <Smiles>
CC(C)(CC(O)(Cc1cc2ncncc2[nH]1)C(F)(F)F)c1cc(Cl)cc2c1OCC2

$$$$
CHEMBL3093459
  SciTegic08162514323D

 46 47  0  0  1  0            999 V2000
   -0.5350    0.2790    0.0640 S   0  0
    0.5530   -0.6350   -0.2400 O   0  0
   -1.5630   -0.3120    0.9020 O   0  0
    0.1700    1.5650    1.0040 N   0  0
   -1.2640    0.7740   -1.4220 C   0  0
    0.6370    1.2540    2.3440 C   0  0  2  0  0  0
   -2.4240    0.1250   -1.8870 C   0  0
   -0.6970    1.8260   -2.1680 C   0  0
    1.2090    2.5020    3.0150 C   0  0
    1.6310    0.0940    2.3080 C   0  0
   -3.0160    0.5280   -3.0980 C   0  0
   -3.0250   -0.9860   -1.1060 C   0  0
   -1.2930    2.2270   -3.3770 C   0  0
    0.5250    2.5160   -1.6840 C   0  0
    0.2520    3.4850    3.0450 F   0  0
    2.2950    2.9440    2.3060 F   0  0
    1.5900    2.1970    4.2970 F   0  0
    0.9240   -1.1370    2.2610 O   0  0
   -2.4510    1.5780   -3.8420 C   0  0
    1.6230   -2.2540    2.2610 C   0  0
   -3.0780    2.0020   -5.1210 C   0  0
    0.9690   -3.4980    2.2610 C   0  0
    3.0290   -2.2050    2.2610 C   0  0
    1.7150   -4.6890    2.2610 C   0  0
    3.7770   -3.3960    2.2610 C   0  0
    3.1190   -4.6390    2.2610 C   0  0
   -0.4960    2.3480    1.0680 H   0  0
   -0.2930    0.9490    2.8260 H   0  0
    2.2560    0.0940    3.2010 H   0  0
    2.2660    0.1560    1.4240 H   0  0
   -3.9040    0.0290   -3.4550 H   0  0
   -2.3090   -1.7260   -0.7520 H   0  0
   -3.7640   -1.5040   -1.7190 H   0  0
   -3.5410   -0.5800   -0.2350 H   0  0
   -0.8590    3.0330   -3.9510 H   0  0
    1.0570    3.0800   -2.4510 H   0  0
    1.2190    1.7830   -1.2720 H   0  0
    0.2620    3.2090   -0.8850 H   0  0
   -2.5840    2.9030   -5.4890 H   0  0
   -3.0390    1.1800   -5.8360 H   0  0
   -4.1270    2.2460   -4.9500 H   0  0
   -0.1110   -3.5410    2.2610 H   0  0
    3.5390   -1.2540    2.2610 H   0  0
    1.2090   -5.6420    2.2610 H   0  0
    4.8560   -3.3570    2.2610 H   0  0
    3.6930   -5.5530    2.2610 H   0  0
  1  2  2  0
  1  3  2  0
  1  4  1  0
  1  5  1  0
  6  4  1  0
  5  7  2  0
  5  8  1  0
  6  9  1  0
  6 10  1  0
  7 11  1  0
  7 12  1  0
  8 13  2  0
  8 14  1  0
  9 15  1  0
  9 16  1  0
  9 17  1  0
 10 18  1  0
 11 19  2  0
 18 20  1  0
 19 21  1  0
 20 22  2  0
 20 23  1  0
 22 24  1  0
 23 25  2  0
 24 26  2  0
 13 19  1  0
 25 26  1  0
  4 27  1  0
  6 28  1  0
 10 29  1  0
 10 30  1  0
 11 31  1  0
 12 32  1  0
 12 33  1  0
 12 34  1  0
 13 35  1  0
 14 36  1  0
 14 37  1  0
 14 38  1  0
 21 39  1  0
 21 40  1  0
 21 41  1  0
 22 42  1  0
 23 43  1  0
 24 44  1  0
 25 45  1  0
 26 46  1  0
M  END
> <Name>
CHEMBL3093459

> <IC50 nM>
10000

> <Molecule_ChEMBL_ID>
CHEMBL3093459

> <Smiles>
Cc1cc(C)c(S(=O)(=O)NC(COc2ccccc2)C(F)(F)F)c(C)c1

$$$$
CHEMBL1762201
  SciTegic08162514323D

 54 57  0  0  0  0            999 V2000
   -0.9590    1.0390    0.5200 F   0  0
   -0.8530   -0.2910    0.4750 C   0  0
   -2.0370   -1.0720    0.5410 C   0  0
    0.4220   -0.9340    0.3670 C   0  0
   -1.9670   -2.4860    0.5040 C   0  0
   -3.3380   -0.4200    0.6500 C   0  0
    0.4820   -2.3610    0.2970 C   0  0
    1.7130   -0.1470    0.3380 C   0  0
   -3.0680   -3.2360    0.5780 F   0  0
   -0.7130   -3.1210    0.3850 C   0  0
   -4.3130   -0.5470   -0.3730 C   0  0
   -3.6470    0.3590    1.7970 C   0  0
    1.6620   -3.0180    0.1430 N   0  0
    1.7620    1.1390    0.2540 N   0  0
    3.0080   -0.9380    0.4220 C   0  0
   -4.3160   -1.2250   -1.5860 N   0  0
   -5.5350    0.0680   -0.2660 C   0  0
   -4.9140    0.9940    1.9000 C   0  0
    2.9120   -2.3180   -0.2580 C   0  0
    2.9960    1.8750    0.2340 O   0  0
   -5.5760   -0.9900   -2.1930 C   0  0
   -5.8730    0.8530    0.8630 C   0  0
   -6.3280   -0.1680   -1.3340 C   0  0
    4.1190   -3.1720    0.1480 C   0  0
    2.9140   -2.1580   -1.7830 C   0  0
    2.6090    3.2380    0.1370 C   0  0
    1.7930    3.6250    1.3690 C   0  0
    1.8460    3.4590   -1.1700 C   0  0
    3.9980    3.8770    0.1250 C   0  0
   -0.6820   -4.2030    0.3570 H   0  0
   -2.9280    0.4780    2.5980 H   0  0
    1.6990   -4.0140    0.2640 H   0  0
    3.8420   -0.3870   -0.0180 H   0  0
    3.2560   -1.0630    1.4770 H   0  0
   -3.5780   -1.7720   -1.9630 H   0  0
   -5.1480    1.5880    2.7720 H   0  0
   -5.8670   -1.3930   -3.1520 H   0  0
   -6.8360    1.3360    0.9450 H   0  0
   -7.3340    0.1950   -1.5060 H   0  0
    4.1540   -3.3400    1.2250 H   0  0
    5.0510   -2.6860   -0.1430 H   0  0
    4.0860   -4.1450   -0.3400 H   0  0
    2.0650   -1.5720   -2.1310 H   0  0
    2.8710   -3.1310   -2.2720 H   0  0
    3.8240   -1.6580   -2.1170 H   0  0
    2.2360    3.2420    2.2890 H   0  0
    0.7790    3.2290    1.3010 H   0  0
    1.7210    4.7090    1.4590 H   0  0
    2.3280    2.9610   -2.0120 H   0  0
    1.7830    4.5220   -1.4020 H   0  0
    0.8300    3.0740   -1.0940 H   0  0
    4.5840    3.5100   -0.7190 H   0  0
    3.9220    4.9610    0.0610 H   0  0
    4.5410    3.6330    1.0370 H   0  0
  1  2  1  0
  2  3  2  0
  2  4  1  0
  3  5  1  0
  3  6  1  0
  4  7  2  0
  4  8  1  0
  5  9  1  0
  5 10  2  0
  6 11  2  0
  6 12  1  0
  7 13  1  0
  8 14  2  0
  8 15  1  0
 11 16  1  0
 11 17  1  0
 12 18  2  0
 13 19  1  0
 14 20  1  0
 16 21  1  0
 17 22  2  0
 17 23  1  0
 19 24  1  0
 19 25  1  0
 20 26  1  0
 26 27  1  0
 26 28  1  0
 26 29  1  0
  7 10  1  0
 15 19  1  0
 18 22  1  0
 21 23  2  0
 10 30  1  0
 12 31  1  0
 13 32  1  0
 15 33  1  0
 15 34  1  0
 16 35  1  0
 18 36  1  0
 21 37  1  0
 22 38  1  0
 23 39  1  0
 24 40  1  0
 24 41  1  0
 24 42  1  0
 25 43  1  0
 25 44  1  0
 25 45  1  0
 27 46  1  0
 27 47  1  0
 27 48  1  0
 28 49  1  0
 28 50  1  0
 28 51  1  0
 29 52  1  0
 29 53  1  0
 29 54  1  0
M  END
> <Name>
CHEMBL1762201

> <IC50 nM>
3.5

> <Molecule_ChEMBL_ID>
CHEMBL1762201

> <Smiles>
CC1(C)C/C(=N\OC(C)(C)C)c2c(cc(F)c(-c3cccc4cc[nH]c34)c2F)N1

$$$$
CHEMBL1762199
  SciTegic08162514323D

 45 48  0  0  0  0            999 V2000
   -0.4510    1.7970    0.5390 F   0  0
   -0.3460    0.4670    0.4920 C   0  0
   -1.5290   -0.3140    0.5590 C   0  0
    0.9300   -0.1760    0.3850 C   0  0
   -1.4590   -1.7280    0.5210 C   0  0
   -2.8300    0.3380    0.6680 C   0  0
    0.9920   -1.6030    0.3160 C   0  0
    2.2210    0.6110    0.3550 C   0  0
   -2.5610   -2.4790    0.5960 F   0  0
   -0.2050   -2.3630    0.4020 C   0  0
   -3.8050    0.2110   -0.3550 C   0  0
   -3.1390    1.1150    1.8160 C   0  0
    2.1700   -2.2600    0.1600 N   0  0
    2.2700    1.8970    0.2710 N   0  0
    3.5160   -0.1800    0.4390 C   0  0
   -3.8090   -0.4630   -1.5680 N   0  0
   -5.0270    0.8260   -0.2480 C   0  0
   -4.4060    1.7500    1.9200 C   0  0
    3.4220   -1.5610   -0.2380 C   0  0
    3.5040    2.6330    0.2520 O   0  0
   -5.0660   -0.2280   -2.1760 C   0  0
   -5.3650    1.6110    0.8830 C   0  0
   -5.8180    0.5940   -1.3180 C   0  0
    4.6290   -2.4140    0.1680 C   0  0
    3.4240   -1.4000   -1.7640 C   0  0
    3.1170    3.9940    0.1520 C   0  0
   -0.1740   -3.4450    0.3750 H   0  0
   -2.4220    1.2340    2.6170 H   0  0
    2.2090   -3.2560    0.2810 H   0  0
    4.3500    0.3710    0.0020 H   0  0
    3.7640   -0.3050    1.4960 H   0  0
   -3.0680   -1.0100   -1.9470 H   0  0
   -4.6430    2.3440    2.7930 H   0  0
   -5.3570   -0.6310   -3.1370 H   0  0
   -6.3280    2.0940    0.9630 H   0  0
   -6.8240    0.9550   -1.4880 H   0  0
    4.6640   -2.5800    1.2440 H   0  0
    5.5590   -1.9280   -0.1250 H   0  0
    4.5940   -3.3890   -0.3200 H   0  0
    2.5720   -0.8140   -2.1110 H   0  0
    3.3790   -2.3730   -2.2540 H   0  0
    4.3320   -0.9000   -2.0980 H   0  0
    4.0160    4.6090    0.2150 H   0  0
    2.5120    4.1130   -0.7460 H   0  0
    2.4880    4.2340    1.0120 H   0  0
  1  2  1  0
  2  3  2  0
  2  4  1  0
  3  5  1  0
  3  6  1  0
  4  7  2  0
  4  8  1  0
  5  9  1  0
  5 10  2  0
  6 11  2  0
  6 12  1  0
  7 13  1  0
  8 14  2  0
  8 15  1  0
 11 16  1  0
 11 17  1  0
 12 18  2  0
 13 19  1  0
 14 20  1  0
 16 21  1  0
 17 22  2  0
 17 23  1  0
 19 24  1  0
 19 25  1  0
 20 26  1  0
  7 10  1  0
 15 19  1  0
 18 22  1  0
 21 23  2  0
 10 27  1  0
 12 28  1  0
 13 29  1  0
 15 30  1  0
 15 31  1  0
 16 32  1  0
 18 33  1  0
 21 34  1  0
 22 35  1  0
 23 36  1  0
 24 37  1  0
 24 38  1  0
 24 39  1  0
 25 40  1  0
 25 41  1  0
 25 42  1  0
 26 43  1  0
 26 44  1  0
 26 45  1  0
M  END
> <Name>
CHEMBL1762199

> <IC50 nM>
42

> <Molecule_ChEMBL_ID>
CHEMBL1762199

> <Smiles>
CO/N=C1\CC(C)(C)Nc2cc(F)c(-c3cccc4cc[nH]c34)c(F)c21

$$$$
CHEMBL1762209
  SciTegic08162514323D

 58 61  0  0  0  0            999 V2000
   -0.6150    0.9060    0.6070 F   0  0
   -0.5120   -0.4240    0.5630 C   0  0
   -1.6950   -1.2050    0.6290 C   0  0
    0.7660   -1.0640    0.4550 C   0  0
   -1.6250   -2.6190    0.5920 C   0  0
   -2.9960   -0.5530    0.7380 C   0  0
    0.8260   -2.4940    0.3850 C   0  0
    2.0550   -0.2790    0.4260 C   0  0
   -2.7250   -3.3670    0.6660 F   0  0
   -0.3710   -3.2540    0.4730 C   0  0
   -3.9690   -0.6760   -0.2870 C   0  0
   -3.3050    0.2250    1.8870 C   0  0
    2.0060   -3.1500    0.2290 N   0  0
    2.1040    1.0060    0.3420 N   0  0
    3.3500   -1.0700    0.5100 C   0  0
   -3.9690   -1.3490   -1.5020 N   0  0
   -5.1910   -0.0600   -0.1820 C   0  0
   -4.5720    0.8600    1.9900 C   0  0
    3.2560   -2.4510   -0.1700 C   0  0
    3.3380    1.7420    0.3200 O   0  0
   -5.2230   -1.1130   -2.1110 C   0  0
   -5.9820   -0.2950   -1.2560 C   0  0
   -5.5290    0.7230    0.9510 C   0  0
    4.4630   -3.3030    0.2360 C   0  0
    3.2580   -2.2910   -1.6950 C   0  0
    2.9510    3.1060    0.2250 C   0  0
   -7.3890    0.2090   -1.5060 C   0  0
    4.3400    3.7440    0.2110 C   0  0
    2.1350    3.4920    1.4570 C   0  0
    2.1900    3.3260   -1.0820 C   0  0
    4.1840    5.1430    0.1170 O   0  0
   -0.3380   -4.3340    0.4450 H   0  0
   -2.5860    0.3380    2.6880 H   0  0
    2.0430   -4.1440    0.3500 H   0  0
    4.1840   -0.5170    0.0700 H   0  0
    3.5980   -1.1950    1.5650 H   0  0
   -3.2270   -1.8940   -1.8770 H   0  0
   -4.8070    1.4490    2.8650 H   0  0
   -5.5120   -1.5140   -3.0740 H   0  0
   -6.4900    1.2090    1.0350 H   0  0
    4.4980   -3.4710    1.3130 H   0  0
    5.3930   -2.8180   -0.0570 H   0  0
    4.4280   -4.2770   -0.2500 H   0  0
    2.4080   -1.7030   -2.0430 H   0  0
    3.2130   -3.2640   -2.1840 H   0  0
    4.1660   -1.7910   -2.0290 H   0  0
   -7.7400   -0.1540   -2.4710 H   0  0
   -8.0350   -0.0940   -0.6820 H   0  0
   -7.3850    1.2990   -1.5410 H   0  0
    4.9120    3.4080   -0.6540 H   0  0
    4.8730    3.5260    1.1370 H   0  0
    1.1310    3.0670    1.4300 H   0  0
    2.0350    4.5760    1.5290 H   0  0
    2.6210    3.1430    2.3670 H   0  0
    1.1840    2.9080   -1.0430 H   0  0
    2.7110    2.8600   -1.9180 H   0  0
    2.0980    4.3910   -1.3010 H   0  0
    5.0720    5.5310    0.1110 H   0  0
  1  2  1  0
  2  3  2  0
  2  4  1  0
  3  5  1  0
  3  6  1  0
  4  7  2  0
  4  8  1  0
  5  9  1  0
  5 10  2  0
  6 11  2  0
  6 12  1  0
  7 13  1  0
  8 14  2  0
  8 15  1  0
 11 16  1  0
 11 17  1  0
 12 18  2  0
 13 19  1  0
 14 20  1  0
 16 21  1  0
 17 22  1  0
 17 23  2  0
 19 24  1  0
 19 25  1  0
 20 26  1  0
 22 27  1  0
 26 28  1  0
 26 29  1  0
 26 30  1  0
 28 31  1  0
  7 10  1  0
 15 19  1  0
 18 23  1  0
 21 22  2  0
 10 32  1  0
 12 33  1  0
 13 34  1  0
 15 35  1  0
 15 36  1  0
 16 37  1  0
 18 38  1  0
 21 39  1  0
 23 40  1  0
 24 41  1  0
 24 42  1  0
 24 43  1  0
 25 44  1  0
 25 45  1  0
 25 46  1  0
 27 47  1  0
 27 48  1  0
 27 49  1  0
 28 50  1  0
 28 51  1  0
 29 52  1  0
 29 53  1  0
 29 54  1  0
 30 55  1  0
 30 56  1  0
 30 57  1  0
 31 58  1  0
M  END
> <Name>
CHEMBL1762209

> <IC50 nM>
65

> <Molecule_ChEMBL_ID>
CHEMBL1762209

> <Smiles>
Cc1c[nH]c2c(-c3c(F)cc4c(c3F)/C(=N/OC(C)(C)CO)CC(C)(C)N4)cccc12

$$$$
CHEMBL467633
  SciTegic08162514323D

 58 60  0  0  1  0            999 V2000
   -2.9140   -3.7290   -1.4200 F   0  0
   -1.6950   -4.2250   -1.6370 C   0  0
   -0.5720   -3.3750   -1.6880 C   0  0
   -1.5390   -5.6100   -1.8130 C   0  0
    0.7070   -3.9200   -1.9180 C   0  0
   -0.7360   -1.9010   -1.4980 C   0  0
   -0.2640   -6.1510   -2.0450 C   0  0
    1.7830   -3.1370   -1.9710 F   0  0
    0.8570   -5.3070   -2.0980 C   0  0
   -1.0040   -1.4400   -0.4120 O   0  0
   -0.5760   -1.0780   -2.5760 N   0  0
   -0.7010    0.3770   -2.3980 C   0  0
   -0.2810   -1.6100   -3.9140 C   0  0
   -2.1600    0.7790   -2.1880 C   0  0  2  0  0  0
   -1.4730   -2.3930   -4.4670 C   0  0
   -2.9810   -0.2210   -2.7480 O   0  0
   -2.3750    2.0720   -2.9770 C   0  0
   -2.5230    0.9240   -0.7090 C   0  0
   -2.2830    1.8090   -4.3180 F   0  0
   -1.4160    2.9860   -2.6230 F   0  0
   -3.6170    2.5800   -2.6930 F   0  0
   -1.5610    1.7870   -0.0120 N   0  0
   -0.8730    1.2930    1.0610 C   0  0
   -1.0550    0.1580    1.4340 O   0  0
    0.0820    2.1460    1.7560 C   0  0
    0.8630    1.7930    2.8850 C   0  0
    0.3950    3.4780    1.4200 C   0  0
    1.6000    2.8930    3.1840 N   0  0
    0.8540    0.4860    3.5700 N   0  0
    1.3140    3.8710    2.3180 N   0  0
    2.4940    3.0100    4.1990 C   0  0
    3.7730    3.5490    3.9550 C   0  0
    2.1480    2.5940    5.4980 C   0  0
    4.6990    3.6700    5.0060 C   0  0
    3.0760    2.7150    6.5470 C   0  0
    4.3500    3.2540    6.3030 C   0  0
    5.2290    3.3670    7.2970 F   0  0
   -2.3980   -6.2640   -1.7720 H   0  0
   -0.1450   -7.2150   -2.1820 H   0  0
    1.8380   -5.7270   -2.2770 H   0  0
   -0.2850    0.8810   -3.2720 H   0  0
   -0.0880    0.6890   -1.5530 H   0  0
   -0.0200   -0.7850   -4.5780 H   0  0
    0.6050   -2.2420   -3.8610 H   0  0
   -1.4320   -2.4400   -5.5550 H   0  0
   -1.4860   -3.4060   -4.0680 H   0  0
   -2.4120   -1.9140   -4.1900 H   0  0
   -3.7460    0.2250   -3.1450 H   0  0
   -2.5510   -0.0530   -0.2230 H   0  0
   -3.5250    1.3400   -0.5980 H   0  0
   -1.4100    2.7270   -0.3160 H   0  0
    0.0020    4.0940    0.6190 H   0  0
    0.2770   -0.2720    3.2620 H   0  0
    1.4360    0.3360    4.3690 H   0  0
    4.0610    3.8750    2.9650 H   0  0
    1.1720    2.1780    5.7070 H   0  0
    5.6780    4.0840    4.8130 H   0  0
    2.8050    2.3940    7.5430 H   0  0
  1  2  1  0
  2  3  2  0
  2  4  1  0
  3  5  1  0
  3  6  1  0
  4  7  2  0
  5  8  1  0
  5  9  2  0
  6 10  2  0
  6 11  1  0
 11 12  1  0
 11 13  1  0
 12 14  1  0
 13 15  1  0
 14 16  1  0
 14 17  1  0
 14 18  1  0
 17 19  1  0
 17 20  1  0
 17 21  1  0
 18 22  1  0
 22 23  1  0
 23 24  2  0
 23 25  1  0
 25 26  2  0
 25 27  1  0
 26 28  1  0
 26 29  1  0
 27 30  2  0
 28 31  1  0
 31 32  2  0
 31 33  1  0
 32 34  1  0
 33 35  2  0
 34 36  2  0
 36 37  1  0
  7  9  1  0
 28 30  1  0
 35 36  1  0
  4 38  1  0
  7 39  1  0
  9 40  1  0
 12 41  1  0
 12 42  1  0
 13 43  1  0
 13 44  1  0
 15 45  1  0
 15 46  1  0
 15 47  1  0
 16 48  1  0
 18 49  1  0
 18 50  1  0
 22 51  1  0
 27 52  1  0
 29 53  1  0
 29 54  1  0
 32 55  1  0
 33 56  1  0
 34 57  1  0
 35 58  1  0
M  END
> <Name>
CHEMBL467633

> <IC50 nM>
7.94

> <Molecule_ChEMBL_ID>
CHEMBL467633

> <Smiles>
CCN(CC(O)(CNC(=O)c1cnn(-c2ccc(F)cc2)c1N)C(F)(F)F)C(=O)c1c(F)cccc1F

$$$$
CHEMBL201304
  SciTegic08162514323D

 48 49  0  0  1  0            999 V2000
    4.9750    0.0190   -2.0180 Cl  0  0
    3.2790   -0.2150   -2.1250 C   0  0
    2.7400   -1.5120   -2.0350 C   0  0
    2.4240    0.8890   -2.3030 C   0  0
    1.3520   -1.7050   -2.1250 C   0  0
    1.0350    0.6930   -2.3930 C   0  0
    0.4980   -0.6020   -2.3050 C   0  0
   -0.9730   -0.8070   -2.4000 C   0  0
   -1.7380    0.1990   -1.5390 C   0  0  2  0  0  0
   -3.0230   -0.3220   -1.2910 O   0  0
   -1.8950    1.5590   -2.2210 C   0  0
   -1.0590    0.4610   -0.1930 C   0  0
   -3.2130    1.9340   -2.1910 F   0  0
   -1.4750    1.4690   -3.5220 F   0  0
   -1.1390    2.4920   -1.5590 F   0  0
   -1.0920   -0.7560    0.7300 C   0  0
   -0.6840    0.0120    1.9380 C   0  0
   -2.4940   -1.3440    0.8830 C   0  0
   -0.0490   -1.8110    0.3540 C   0  0
    0.6430    0.4630    2.0800 C   0  0
   -1.6330    0.2850    2.9390 C   0  0
    1.5410    0.2110    1.1470 O   0  0
    1.0140    1.1860    3.2270 C   0  0
   -1.2580    1.0100    4.0840 C   0  0
    2.8070    0.8440    1.2520 C   0  0
    0.0640    1.4610    4.2270 C   0  0
   -2.1560    1.2700    5.0310 F   0  0
    3.3850   -2.3690   -1.8980 H   0  0
    2.8220    1.8910   -2.3690 H   0  0
    0.9430   -2.7030   -2.0550 H   0  0
    0.3850    1.5450   -2.5290 H   0  0
   -1.2810   -0.7360   -3.4430 H   0  0
   -1.2170   -1.8280   -2.1070 H   0  0
   -3.1760   -1.0270   -1.9390 H   0  0
   -0.0370    0.8090   -0.3400 H   0  0
   -1.5000    1.3280    0.2970 H   0  0
   -2.5980   -1.9120    1.8090 H   0  0
   -2.7250   -2.0140    0.0550 H   0  0
   -3.2440   -0.5530    0.8910 H   0  0
    0.2250   -2.4340    1.2050 H   0  0
    0.8610   -1.3360   -0.0180 H   0  0
   -0.4280   -2.4650   -0.4300 H   0  0
   -2.6500   -0.0610    2.8300 H   0  0
    2.0290    1.5350    3.3400 H   0  0
    3.4080    0.5510    0.3930 H   0  0
    2.6450    1.9120    1.3850 H   0  0
    3.3030    0.4690    2.1480 H   0  0
    0.3570    2.0180    5.1060 H   0  0
  1  2  1  0
  2  3  2  0
  2  4  1  0
  3  5  1  0
  4  6  2  0
  5  7  2  0
  7  8  1  0
  8  9  1  0
  9 10  1  0
  9 11  1  0
  9 12  1  0
 11 13  1  0
 11 14  1  0
 11 15  1  0
 12 16  1  0
 16 17  1  0
 16 18  1  0
 16 19  1  0
 17 20  2  0
 17 21  1  0
 20 22  1  0
 20 23  1  0
 21 24  2  0
 22 25  1  0
 23 26  2  0
 24 27  1  0
  6  7  1  0
 24 26  1  0
  3 28  1  0
  4 29  1  0
  5 30  1  0
  6 31  1  0
  8 32  1  0
  8 33  1  0
 10 34  1  0
 12 35  1  0
 12 36  1  0
 18 37  1  0
 18 38  1  0
 18 39  1  0
 19 40  1  0
 19 41  1  0
 19 42  1  0
 21 43  1  0
 23 44  1  0
 25 45  1  0
 25 46  1  0
 25 47  1  0
 26 48  1  0
M  END
> <Name>
CHEMBL201304

> <IC50 nM>
2000

> <Molecule_ChEMBL_ID>
CHEMBL201304

> <Smiles>
COc1ccc(F)cc1C(C)(C)C[C@](O)(Cc1ccc(Cl)cc1)C(F)(F)F

$$$$
CHEMBL1911544
  SciTegic08162514323D

 52 54  0  0  1  0            999 V2000
   -3.3710   -3.7660    2.0660 F   0  0
   -3.3690   -2.4340    2.0610 C   0  0
   -2.1560   -1.7050    2.0530 C   0  0
   -4.5920   -1.7130    2.0590 C   0  0
   -0.8300   -2.1130    2.0530 N   0  0
   -2.1450   -0.3340    2.0430 C   0  0
   -4.5800   -0.2910    2.0510 C   0  0
   -0.0350   -0.9400    2.0390 C   0  0
   -3.3480    0.4140    2.0430 C   0  0
   -0.8950    0.1760    2.0350 C   0  0
    1.4780   -0.9610    2.0330 C   0  0
    2.0470    0.3320    1.4490 C   0  0  2  0  0  0
    3.4340    0.1580    1.2640 O   0  0
    1.8360    1.5370    2.3650 C   0  0
    1.4260    0.6930    0.1010 C   0  0
    3.0530    2.0430    2.7440 F   0  0
    1.1370    1.1460    3.4780 F   0  0
    1.1270    2.5020    1.6950 F   0  0
    1.5350   -0.4360   -0.9240 C   0  0
    1.2560    0.4430   -2.0900 C   0  0
    2.9410   -1.0330   -0.9940 C   0  0
    0.4510   -1.4980   -0.7480 C   0  0
   -0.0550    0.9000   -2.3400 C   0  0
    2.3090    0.8200   -2.9430 C   0  0
   -1.0470    0.5530   -1.5450 O   0  0
   -0.3030    1.7300   -3.4450 C   0  0
    2.0550    1.6520   -4.0470 C   0  0
   -2.3440    1.0510   -1.8440 C   0  0
    0.7480    2.1070   -4.2990 C   0  0
    3.0510    2.0100   -4.8560 F   0  0
   -5.5330   -2.2420    2.0620 H   0  0
   -0.5000   -3.0510    2.0610 H   0  0
   -5.5120    0.2560    2.0530 H   0  0
   -3.3360    1.4940    2.0390 H   0  0
   -0.6040    1.2190    2.0250 H   0  0
    1.8440   -1.1190    3.0490 H   0  0
    1.8260   -1.8260    1.4690 H   0  0
    3.7770   -0.2790    2.0570 H   0  0
    0.3870    1.0020    0.2260 H   0  0
    1.8630    1.6130   -0.2910 H   0  0
    3.0960   -1.6020   -1.9100 H   0  0
    3.1170   -1.7050   -0.1520 H   0  0
    3.6950   -0.2480   -0.9550 H   0  0
    0.1270   -1.9100   -1.7030 H   0  0
   -0.4260   -1.0780   -0.2520 H   0  0
    0.8140   -2.3240   -0.1350 H   0  0
    3.3120    0.4730   -2.7520 H   0  0
   -1.3050    2.0820   -3.6410 H   0  0
   -2.3200    2.1370   -1.7560 H   0  0
   -2.6490    0.6500   -2.8110 H   0  0
   -3.0350    0.6700   -1.0920 H   0  0
    0.5490    2.7480   -5.1470 H   0  0
  1  2  1  0
  2  3  2  0
  2  4  1  0
  3  5  1  0
  3  6  1  0
  4  7  2  0
  5  8  1  0
  6  9  2  0
  6 10  1  0
  8 11  1  0
 11 12  1  0
 12 13  1  0
 12 14  1  0
 12 15  1  0
 14 16  1  0
 14 17  1  0
 14 18  1  0
 15 19  1  0
 19 20  1  0
 19 21  1  0
 19 22  1  0
 20 23  2  0
 20 24  1  0
 23 25  1  0
 23 26  1  0
 24 27  2  0
 25 28  1  0
 26 29  2  0
 27 30  1  0
  7  9  1  0
  8 10  2  0
 27 29  1  0
  4 31  1  0
  5 32  1  0
  7 33  1  0
  9 34  1  0
 10 35  1  0
 11 36  1  0
 11 37  1  0
 13 38  1  0
 15 39  1  0
 15 40  1  0
 21 41  1  0
 21 42  1  0
 21 43  1  0
 22 44  1  0
 22 45  1  0
 22 46  1  0
 24 47  1  0
 26 48  1  0
 28 49  1  0
 28 50  1  0
 28 51  1  0
 29 52  1  0
M  END
> <Name>
CHEMBL1911544

> <IC50 nM>
15

> <Molecule_ChEMBL_ID>
CHEMBL1911544

> <Smiles>
COc1ccc(F)cc1C(C)(C)CC(O)(Cc1cc2cccc(F)c2[nH]1)C(F)(F)F

$$$$
CHEMBL1911654
  SciTegic08162514323D

 53 55  0  0  1  0            999 V2000
   -6.1950    2.0470   -1.8050 F   0  0
   -5.4180    1.6330   -0.8070 C   0  0
   -4.2480    0.9040   -1.0820 C   0  0
   -5.7680    1.9220    0.5240 C   0  0
   -3.4280    0.4650   -0.0270 C   0  0
   -4.9490    1.4820    1.5760 C   0  0
   -3.7770    0.7540    1.3070 C   0  0
   -2.1910   -0.3050   -0.3280 C   0  0
   -3.0160    0.3480    2.3030 O   0  0
   -1.2560    0.8770   -0.0700 C   0  0
   -2.1600   -0.7710   -1.7850 C   0  0
   -1.9820   -1.4490    0.6640 C   0  0
   -3.3480    0.7810    3.6150 C   0  0
    0.1740    0.6130   -0.5410 C   0  0  1  0  0  0
    0.1920    0.6640   -1.9490 O   0  0
    1.0270    1.7660   -0.0120 C   0  0
    0.6950   -0.7560   -0.1050 C   0  0
    1.2360    1.6000    1.3340 F   0  0
    0.3790    2.9530   -0.2300 F   0  0
    2.2350    1.7770   -0.6620 F   0  0
    2.1840   -0.8790   -0.3500 C   0  0
    3.1540   -0.6780    0.6640 N   0  0
    2.8500   -1.1970   -1.5490 C   0  0
    4.3950   -0.8730    0.0760 C   0  0
    4.1640   -1.1800   -1.2420 C   0  0
    5.7050   -0.8050    0.6040 C   0  0
    5.2330   -1.4410   -2.1370 C   0  0
    6.7910   -1.0630   -0.2730 C   0  0
    6.5630   -1.3810   -1.6410 C   0  0
    8.1390   -1.0020    0.2290 C   0  0
    9.2270   -0.9530    0.6350 N   0  0
   -3.9780    0.6820   -2.1050 H   0  0
   -6.6680    2.4810    0.7400 H   0  0
   -5.2210    1.7070    2.5980 H   0  0
   -1.2690    1.1560    0.9840 H   0  0
   -1.6500    1.7870   -0.5250 H   0  0
   -3.0590   -1.3300   -2.0510 H   0  0
   -1.3010   -1.4180   -1.9630 H   0  0
   -2.0860    0.0780   -2.4610 H   0  0
   -2.9300   -1.8500    1.0250 H   0  0
   -1.4140   -1.1110    1.5270 H   0  0
   -1.4320   -2.2660    0.1990 H   0  0
   -2.6270    0.3480    4.3090 H   0  0
   -3.4180    1.8670    3.6080 H   0  0
   -4.3300    0.3850    3.8650 H   0  0
    0.4450   -0.2170   -2.2660 H   0  0
    0.1740   -1.5530   -0.6350 H   0  0
    0.4840   -0.9320    0.9490 H   0  0
    2.9750   -0.4430    1.6130 H   0  0
    2.3930   -1.4060   -2.5100 H   0  0
    5.8630   -0.5610    1.6450 H   0  0
    5.0530   -1.6820   -3.1740 H   0  0
    7.3870   -1.5760   -2.3110 H   0  0
  1  2  1  0
  2  3  2  0
  2  4  1  0
  3  5  1  0
  4  6  2  0
  5  7  2  0
  5  8  1  0
  7  9  1  0
  8 10  1  0
  8 11  1  0
  8 12  1  0
  9 13  1  0
 10 14  1  0
 14 15  1  0
 14 16  1  0
 14 17  1  0
 16 18  1  0
 16 19  1  0
 16 20  1  0
 17 21  1  0
 21 22  1  0
 21 23  2  0
 22 24  1  0
 23 25  1  0
 24 26  1  0
 25 27  1  0
 26 28  2  0
 27 29  2  0
 28 30  1  0
 30 31  3  0
  6  7  1  0
 24 25  2  0
 28 29  1  0
  3 32  1  0
  4 33  1  0
  6 34  1  0
 10 35  1  0
 10 36  1  0
 11 37  1  0
 11 38  1  0
 11 39  1  0
 12 40  1  0
 12 41  1  0
 12 42  1  0
 13 43  1  0
 13 44  1  0
 13 45  1  0
 15 46  1  0
 17 47  1  0
 17 48  1  0
 22 49  1  0
 23 50  1  0
 26 51  1  0
 27 52  1  0
 29 53  1  0
M  END
> <Name>
CHEMBL1911654

> <IC50 nM>
14

> <Molecule_ChEMBL_ID>
CHEMBL1911654

> <Smiles>
COc1ccc(F)cc1C(C)(C)CC(O)(Cc1cc2ccc(C#N)cc2[nH]1)C(F)(F)F

$$$$
CHEMBL1911659
  SciTegic08162514323D

 54 57  0  0  1  0            999 V2000
    2.6800   -2.0370   -1.5720 F   0  0
    2.9530   -0.7090   -1.3690 C   0  0
    4.0140   -0.5860   -0.5100 F   0  0
    3.2680   -0.1190   -2.5660 F   0  0
    1.7290   -0.0210   -0.7680 C   0  0  1  0  0  0
    2.0000    1.3570   -0.6680 O   0  0
    0.4730   -0.1990   -1.6210 C   0  0
    1.5650   -0.5800    0.6470 C   0  0
    0.3030    0.9470   -2.5960 C   0  0
    0.1000   -0.7730    1.0390 C   0  0
   -0.5820    2.0310   -2.3750 N   0  0
    0.9510    1.1480   -3.8280 C   0  0
   -0.0270   -1.3520    2.3810 C   0  0
   -0.7210    0.5100    0.8980 C   0  0
   -0.5470   -1.9670    0.3380 C   0  0
   -0.4670    2.8750   -3.4670 C   0  0
    0.4570    2.3110   -4.3070 C   0  0
   -1.3260   -1.5660    2.9260 C   0  0
    1.1430   -1.6840    3.1000 C   0  0
   -1.1050    4.0980   -3.7810 C   0  0
    0.8130    2.9280   -5.5310 C   0  0
   -2.5190   -1.3110    2.3890 O   0  0
   -1.4370   -2.1230    4.2090 C   0  0
    1.0120   -2.2380    4.3870 C   0  0
   -0.7690    4.7380   -5.0020 C   0  0
    0.1880    4.1540   -5.8750 C   0  0
   -3.5840   -1.6760    3.2870 C   0  0
   -0.2680   -2.4570    4.9380 C   0  0
   -2.9000   -2.2520    4.5590 C   0  0
    2.1900   -2.5800    5.1330 C   0  0
    3.1410   -2.8550    5.7360 N   0  0
    1.3930    1.7230   -0.0040 H   0  0
   -0.4140   -0.2750   -0.9920 H   0  0
    0.5120   -1.1410   -2.1720 H   0  0
    2.1190   -1.5140    0.7580 H   0  0
    2.0780    0.0490    1.3710 H   0  0
   -1.1740    2.1600   -1.5860 H   0  0
    1.6880    0.5040   -4.2890 H   0  0
   -1.7690    0.2990    0.6820 H   0  0
   -0.3320    1.1310    0.0940 H   0  0
   -0.6840    1.0940    1.8180 H   0  0
   -1.5980   -1.7660    0.1230 H   0  0
   -0.0310   -2.1930   -0.5940 H   0  0
   -0.5020   -2.8550    0.9690 H   0  0
    2.1170   -1.5080    2.6580 H   0  0
   -1.8320    4.5330   -3.1110 H   0  0
    1.5430    2.4820   -6.1930 H   0  0
   -1.2420    5.6720   -5.2680 H   0  0
    0.4410    4.6450   -6.8050 H   0  0
   -4.1680   -0.7970    3.5140 H   0  0
   -4.2150   -2.4100    2.8070 H   0  0
   -0.3790   -2.8810    5.9180 H   0  0
   -3.1250   -1.6800    5.4430 H   0  0
   -3.1500   -3.2850    4.7290 H   0  0
  1  2  1  0
  2  3  1  0
  2  4  1  0
  2  5  1  0
  5  6  1  0
  5  7  1  0
  5  8  1  0
  7  9  1  0
  8 10  1  0
  9 11  1  0
  9 12  2  0
 10 13  1  0
 10 14  1  0
 10 15  1  0
 11 16  1  0
 12 17  1  0
 13 18  2  0
 13 19  1  0
 16 20  1  0
 17 21  1  0
 18 22  1  0
 18 23  1  0
 19 24  2  0
 20 25  2  0
 21 26  2  0
 22 27  1  0
 23 28  2  0
 23 29  1  0
 24 30  1  0
 30 31  3  0
 16 17  2  0
 24 28  1  0
 25 26  1  0
 27 29  1  0
  6 32  1  0
  7 33  1  0
  7 34  1  0
  8 35  1  0
  8 36  1  0
 11 37  1  0
 12 38  1  0
 14 39  1  0
 14 40  1  0
 14 41  1  0
 15 42  1  0
 15 43  1  0
 15 44  1  0
 19 45  1  0
 20 46  1  0
 21 47  1  0
 25 48  1  0
 26 49  1  0
 27 50  1  0
 27 51  1  0
 28 52  1  0
 29 53  1  0
 29 54  1  0
M  END
> <Name>
CHEMBL1911659

> <IC50 nM>
15

> <Molecule_ChEMBL_ID>
CHEMBL1911659

> <Smiles>
CC(C)(CC(O)(Cc1cc2ccccc2[nH]1)C(F)(F)F)c1cc(C#N)cc2c1OCC2

$$$$
CHEMBL3094470
  SciTegic08162514323D

 51 52  0  0  1  0            999 V2000
   -0.1000    1.3980   -1.0470 S   0  0
   -0.8360    2.6370   -1.2280 O   0  0
    1.3160    1.5250   -1.3430 O   0  0
   -0.2030    1.0230    0.6490 N   0  0
   -0.7720    0.2070   -2.1030 C   0  0
    0.4350    1.9300    1.5880 C   0  0  2  0  0  0
   -1.3830    0.6000   -3.3080 C   0  0
   -0.7070   -1.1560   -1.7580 C   0  0
    0.4940    1.3010    2.9810 C   0  0
   -0.2660    3.2890    1.5820 C   0  0
   -1.9280   -0.3710   -4.1680 C   0  0
   -1.4530    2.0390   -3.6810 C   0  0
   -1.2540   -2.1250   -2.6190 C   0  0
   -0.0650   -1.5800   -0.4860 C   0  0
    1.2810    0.0410    2.9810 C   0  0
    0.5680    4.3790    0.9090 C   0  0
   -1.8650   -1.7320   -3.8240 C   0  0
    0.6230   -1.2010    2.9810 C   0  0
    2.6870    0.0920    2.9810 C   0  0
   -2.4430   -2.7560   -4.7320 C   0  0
    1.3710   -2.3930    2.9810 C   0  0
    3.4340   -1.1000    2.9810 C   0  0
    2.7750   -2.3420    2.9810 C   0  0
    0.6760   -3.7070    2.9810 C   0  0
   -1.1930    0.9240    0.9180 H   0  0
    1.4340    2.0080    1.1590 H   0  0
   -0.5100    1.1020    3.3580 H   0  0
    0.9240    2.0000    3.7020 H   0  0
   -1.2480    3.2130    1.1180 H   0  0
   -0.5410    3.5840    2.5940 H   0  0
   -2.3970   -0.0680   -5.0940 H   0  0
   -0.5220    2.5860   -3.5370 H   0  0
   -2.2250    2.5290   -3.0880 H   0  0
   -1.7340    2.1290   -4.7300 H   0  0
   -1.2050   -3.1700   -2.3530 H   0  0
    0.8670   -1.0610   -0.2590 H   0  0
    0.1520   -2.6470   -0.5250 H   0  0
   -0.7500   -1.4080    0.3440 H   0  0
    0.0160    5.3180    0.8710 H   0  0
    1.5020    4.5370    1.4480 H   0  0
    0.8160    4.0980   -0.1130 H   0  0
   -0.4550   -1.2400    2.9810 H   0  0
    3.1990    1.0430    2.9810 H   0  0
   -2.3420   -3.7810   -4.3750 H   0  0
   -1.9570   -2.6950   -5.7050 H   0  0
   -3.5040   -2.5570   -4.8770 H   0  0
    4.5140   -1.0610    2.9810 H   0  0
    3.3550   -3.2540    2.9810 H   0  0
    1.3440   -4.5680    2.9810 H   0  0
    0.0370   -3.7790    2.1020 H   0  0
    0.0370   -3.7790    3.8620 H   0  0
  1  2  2  0
  1  3  2  0
  1  4  1  0
  1  5  1  0
  6  4  1  0
  5  7  2  0
  5  8  1  0
  6  9  1  0
  6 10  1  0
  7 11  1  0
  7 12  1  0
  8 13  2  0
  8 14  1  0
  9 15  1  0
 10 16  1  0
 11 17  2  0
 15 18  2  0
 15 19  1  0
 17 20  1  0
 18 21  1  0
 19 22  2  0
 21 23  2  0
 21 24  1  0
 13 17  1  0
 22 23  1  0
  4 25  1  0
  6 26  1  0
  9 27  1  0
  9 28  1  0
 10 29  1  0
 10 30  1  0
 11 31  1  0
 12 32  1  0
 12 33  1  0
 12 34  1  0
 13 35  1  0
 14 36  1  0
 14 37  1  0
 14 38  1  0
 16 39  1  0
 16 40  1  0
 16 41  1  0
 18 42  1  0
 19 43  1  0
 20 44  1  0
 20 45  1  0
 20 46  1  0
 22 47  1  0
 23 48  1  0
 24 49  1  0
 24 50  1  0
 24 51  1  0
M  END
> <Name>
CHEMBL3094470

> <IC50 nM>
10000

> <Molecule_ChEMBL_ID>
CHEMBL3094470

> <Smiles>
CCC(Cc1cccc(C)c1)NS(=O)(=O)c1c(C)cc(C)cc1C

$$$$
CHEMBL4210441
  SciTegic08162514323D

 58 61  0  0  1  0            999 V2000
   -3.2790   -2.7870   -3.9710 F   0  0
   -4.4650   -2.5510   -3.3240 C   0  0
   -5.1860   -3.7170   -3.2560 F   0  0
   -4.2130   -2.0060   -1.9450 C   0  0
   -5.2660   -1.5000   -4.0940 C   0  0
   -4.6250   -0.9160   -1.6230 O   0  0
   -3.5100   -2.7670   -1.0570 N   0  0
   -3.2540   -2.2480    0.2950 C   0  0  2  0  0  0
   -2.0760   -1.2750    0.2970 C   0  0  2  0  0  0
   -3.0760   -3.3910    1.2970 C   0  0
   -0.8870   -1.9730   -0.0430 O   0  0
   -1.9060   -0.6210    1.6210 C   0  0
    0.2480   -1.2660   -0.1450 C   0  0
   -2.5430    0.6040    1.8870 C   0  0
   -1.1110   -1.2280    2.6090 C   0  0
    1.5000   -1.9410   -0.1760 C   0  0
    0.1950    0.1520   -0.2230 C   0  0
   -2.3810    1.2210    3.1410 C   0  0
   -0.9510   -0.6110    3.8610 C   0  0
    2.6950   -1.1850   -0.2830 C   0  0
    1.3890    0.9100   -0.3300 C   0  0
   -1.5860    0.6130    4.1270 C   0  0
    2.6040    0.1930   -0.3550 C   0  0
    3.9650   -1.7730   -0.3180 C   0  0
    3.9100    0.4770   -0.4410 N   0  0
    4.7250   -0.6190   -0.4260 N   0  0
    4.4200    1.8030   -0.5430 C   0  0
    3.9360    2.7930    0.2460 C   0  0
    5.4900    2.1040   -1.5220 C   0  0
    4.4080    4.0900    0.1680 N   0  0
    5.9610    3.3630   -1.6050 C   0  0
    5.4060    4.4180   -0.7300 C   0  0
    3.8360    5.1210    1.0550 C   0  0
    5.8280    5.5490   -0.8070 O   0  0
   -5.4880   -1.8240   -5.1110 H   0  0
   -4.7110   -0.5640   -4.1560 H   0  0
   -6.2130   -1.2950   -3.5940 H   0  0
   -3.1700   -3.6680   -1.3240 H   0  0
   -4.1560   -1.7640    0.6680 H   0  0
   -2.2540   -0.5140   -0.4630 H   0  0
   -3.9180   -4.0840    1.2440 H   0  0
   -2.1540   -3.9370    1.0980 H   0  0
   -3.0240   -3.0080    2.3140 H   0  0
   -3.1540    1.0760    1.1330 H   0  0
   -0.6190   -2.1700    2.4100 H   0  0
    1.5290   -3.0190   -0.1150 H   0  0
   -0.7600    0.6580   -0.1990 H   0  0
   -2.8690    2.1620    3.3440 H   0  0
   -0.3400   -1.0780    4.6190 H   0  0
    1.3670    1.9880   -0.3890 H   0  0
   -1.4630    1.0880    5.0900 H   0  0
    4.3090   -2.8010   -0.2790 H   0  0
    3.1520    2.5470    0.9530 H   0  0
    5.8930    1.3320   -2.1600 H   0  0
    6.7420    3.6020   -2.3130 H   0  0
    3.0570    4.7640    1.7290 H   0  0
    3.4140    5.9200    0.4490 H   0  0
    4.6310    5.5490    1.6660 H   0  0
  1  2  1  0
  2  3  1  0
  2  4  1  0
  2  5  1  0
  4  6  2  0
  4  7  1  0
  7  8  1  0
  8  9  1  0
  8 10  1  0
  9 11  1  0
  9 12  1  0
 11 13  1  0
 12 14  2  0
 12 15  1  0
 13 16  2  0
 13 17  1  0
 14 18  1  0
 15 19  2  0
 16 20  1  0
 17 21  2  0
 18 22  2  0
 20 23  2  0
 20 24  1  0
 23 25  1  0
 24 26  2  0
 25 27  1  0
 27 28  2  0
 27 29  1  0
 28 30  1  0
 29 31  2  0
 30 32  1  0
 30 33  1  0
 32 34  2  0
 19 22  1  0
 21 23  1  0
 25 26  1  0
 31 32  1  0
  5 35  1  0
  5 36  1  0
  5 37  1  0
  7 38  1  0
  8 39  1  0
  9 40  1  0
 10 41  1  0
 10 42  1  0
 10 43  1  0
 14 44  1  0
 15 45  1  0
 16 46  1  0
 17 47  1  0
 18 48  1  0
 19 49  1  0
 21 50  1  0
 22 51  1  0
 24 52  1  0
 28 53  1  0
 29 54  1  0
 31 55  1  0
 33 56  1  0
 33 57  1  0
 33 58  1  0
M  END
> <Name>
CHEMBL4210441

> <IC50 nM>
1.6

> <Molecule_ChEMBL_ID>
CHEMBL4210441

> <Smiles>
C[C@H](NC(=O)C(C)(F)F)[C@H](Oc1ccc2c(cnn2-c2ccc(=O)n(C)c2)c1)c1ccccc1

$$$$
CHEMBL4212204
  SciTegic08162514323D

 58 60  0  0  1  0            999 V2000
   -0.7930   -4.1020    0.9830 Br  0  0
   -2.2190   -2.8750    0.8360 C   0  0
   -1.9830   -1.4830    0.8810 C   0  0
   -3.5350   -3.3580    0.6800 C   0  0
   -0.7620   -1.0020    1.0250 O   0  0
   -3.0610   -0.5880    0.7700 C   0  0
   -4.6040   -2.4510    0.5680 C   0  0
   -0.4550    0.2380    0.4080 C   0  0  2  0  0  0
   -4.3730   -1.0670    0.6130 C   0  0
   -5.9480   -2.9450    0.4100 C   0  0
   -0.8440    0.1850   -1.0250 C   0  0
    1.0350    0.5370    0.5760 C   0  0  1  0  0  0
   -7.0300   -3.3420    0.2810 N   0  0
   -1.7350    1.1410   -1.5640 C   0  0
   -0.3300   -0.8170   -1.8730 C   0  0
    1.3690    1.8630    0.0370 N   0  0
    1.5040    0.3980    2.0250 C   0  0
   -2.0880    1.0880   -2.8810 N   0  0
   -0.6920   -0.8590   -3.1890 N   0  0
    2.4800    2.0080   -0.7420 C   0  0
    2.9120    0.4610    2.0410 O   0  0
   -1.5570    0.0920   -3.6540 C   0  0
    3.1830    1.0550   -0.9880 O   0  0
    2.8100    3.3730   -1.2850 C   0  0
    3.4530    0.4880    3.3420 C   0  0
   -1.9510    0.0410   -5.1020 C   0  0
    3.9570    3.2560   -2.0270 F   0  0
    3.0170    4.2600   -0.2600 F   0  0
    1.7930    3.8300   -2.0840 F   0  0
    4.9690    0.3320    3.2330 C   0  0
    2.8010   -0.6330    4.1520 C   0  0
    3.0350    1.8790    3.8170 C   0  0
   -1.8220   -1.2620   -5.8670 C   0  0
   -3.1920   -0.7270   -5.5140 C   0  0
   -3.7210   -4.4240    0.6450 H   0  0
   -2.8810    0.4760    0.8030 H   0  0
   -1.0260    1.0190    0.9100 H   0  0
   -5.1860   -0.3590    0.5290 H   0  0
    1.6390   -0.2170    0.0720 H   0  0
   -2.1410    1.9200   -0.9350 H   0  0
    0.3510   -1.5610   -1.4860 H   0  0
    0.7910    2.6520    0.2400 H   0  0
    1.1210    1.2170    2.6330 H   0  0
    1.2030   -0.5650    2.4380 H   0  0
   -1.7400    0.9490   -5.6640 H   0  0
    5.4140    1.1050    2.6080 H   0  0
    5.2260   -0.6350    2.8010 H   0  0
    5.4340    0.3920    4.2170 H   0  0
    1.7650   -0.4020    4.4060 H   0  0
    3.3420   -0.7990    5.0840 H   0  0
    2.8070   -1.5680    3.5920 H   0  0
    2.0390    1.8530    4.2600 H   0  0
    3.7420    2.2640    4.5530 H   0  0
    3.0100    2.5800    2.9830 H   0  0
   -1.4690   -2.1470   -5.3340 H   0  0
   -1.5100   -1.2050   -6.9100 H   0  0
   -3.7950   -0.3110   -6.3220 H   0  0
   -3.7600   -1.2500   -4.7440 H   0  0
  1  2  1  0
  2  3  2  0
  2  4  1  0
  3  5  1  0
  3  6  1  0
  4  7  2  0
  8  5  1  0
  6  9  2  0
  7 10  1  0
  8 11  1  0
  8 12  1  0
 10 13  3  0
 11 14  2  0
 11 15  1  0
 12 16  1  0
 12 17  1  0
 14 18  1  0
 15 19  2  0
 16 20  1  0
 17 21  1  0
 18 22  2  0
 20 23  2  0
 20 24  1  0
 21 25  1  0
 22 26  1  0
 24 27  1  0
 24 28  1  0
 24 29  1  0
 25 30  1  0
 25 31  1  0
 25 32  1  0
 26 33  1  0
 26 34  1  0
  7  9  1  0
 19 22  1  0
 33 34  1  0
  4 35  1  0
  6 36  1  0
  8 37  1  0
  9 38  1  0
 12 39  1  0
 14 40  1  0
 15 41  1  0
 16 42  1  0
 17 43  1  0
 17 44  1  0
 26 45  1  0
 30 46  1  0
 30 47  1  0
 30 48  1  0
 31 49  1  0
 31 50  1  0
 31 51  1  0
 32 52  1  0
 32 53  1  0
 32 54  1  0
 33 55  1  0
 33 56  1  0
 34 57  1  0
 34 58  1  0
M  END
> <Name>
CHEMBL4212204

> <IC50 nM>
516

> <Molecule_ChEMBL_ID>
CHEMBL4212204

> <Smiles>
CC(C)(C)OC[C@H](NC(=O)C(F)(F)F)[C@H](Oc1ccc(C#N)cc1Br)c1cnc(C2CC2)nc1

$$$$
CHEMBL2087287
  SciTegic08162514323D

 57 59  0  0  0  0            999 V2000
    1.1190   -0.5880    2.8070 Br  0  0
   -0.2150   -1.8910    2.5120 C   0  0
   -1.3150   -1.6230    1.6640 C   0  0
   -0.1040   -3.1410    3.1470 C   0  0
   -1.4240   -0.4510    1.0650 O   0  0
   -2.2970   -2.6190    1.4630 C   0  0
   -1.0840   -4.1250    2.9450 C   0  0
   -0.6760   -0.2290    0.0020 C   0  0
   -3.7810   -2.3050    0.3400 Br  0  0
   -2.1780   -3.8650    2.1060 C   0  0
   -0.9610   -5.4450    3.6190 C   0  0
   -0.5180    1.0760   -0.5040 C   0  0
   -0.0310   -1.3050   -0.6350 C   0  0
   -1.2370   -5.3540    5.0960 C   0  0
   -1.1960    2.2320    0.1580 C   0  0
    0.2810    1.2970   -1.6410 C   0  0
    0.7670   -1.0840   -1.7690 C   0  0
   -0.3340   -5.3870    5.9010 O   0  0
   -2.5200   -5.2380    5.4260 O   0  0
   -2.2800    2.1010    0.6800 O   0  0
   -0.4980    3.5530    0.1580 C   0  0
    0.9260    0.2210   -2.2750 C   0  0
    1.4430   -2.2330   -2.4300 C   0  0
   -1.2440    4.7440    0.1580 C   0  0
    0.9080    3.6030    0.1580 C   0  0
    1.6740    0.4390   -3.3380 O   0  0
    0.9370   -2.4380   -3.8570 C   0  0
    2.9650   -2.1100   -2.3550 C   0  0
   -0.5860    5.9880    0.1580 C   0  0
    1.5640    4.8460    0.1580 C   0  0
    1.7790    1.7710   -3.8160 C   0  0
    0.8180    6.0370    0.1580 C   0  0
   -1.3750    7.2480    0.1580 C   0  0
    0.7340   -3.3560    3.7950 H   0  0
   -2.9260   -4.6330    1.9590 H   0  0
    0.0370   -5.8480    3.4530 H   0  0
   -1.6490   -6.1540    3.1580 H   0  0
   -0.1540   -2.3070   -0.2440 H   0  0
    0.4060    2.2970   -2.0310 H   0  0
   -3.1880   -5.2090    4.7290 H   0  0
    1.0880   -3.0310   -1.7770 H   0  0
   -2.3240    4.7090    0.1580 H   0  0
    1.4900    2.6930    0.1580 H   0  0
   -0.1530   -2.4750   -3.9020 H   0  0
    1.3180   -3.3710   -4.2710 H   0  0
    1.2690   -1.6250   -4.5040 H   0  0
    3.3080   -1.9280   -1.3360 H   0  0
    3.3160   -1.2870   -2.9770 H   0  0
    3.4430   -3.0240   -2.7090 H   0  0
    2.6440    4.8850    0.1580 H   0  0
    0.7910    2.1000   -4.1370 H   0  0
    2.2600    2.3750   -3.0430 H   0  0
    2.4320    1.7710   -4.6890 H   0  0
    1.3300    6.9880    0.1580 H   0  0
   -0.7700    8.1540    0.1520 H   0  0
   -2.0120    7.2770    1.0430 H   0  0
   -2.0200    7.2710   -0.7190 H   0  0
  1  2  1  0
  2  3  2  0
  2  4  1  0
  3  5  1  0
  3  6  1  0
  4  7  2  0
  5  8  1  0
  6  9  1  0
  6 10  2  0
  7 11  1  0
  8 12  2  0
  8 13  1  0
 11 14  1  0
 12 15  1  0
 12 16  1  0
 13 17  2  0
 14 18  2  0
 14 19  1  0
 15 20  2  0
 15 21  1  0
 16 22  2  0
 17 23  1  0
 21 24  2  0
 21 25  1  0
 22 26  1  0
 23 27  1  0
 23 28  1  0
 24 29  1  0
 25 30  2  0
 26 31  1  0
 29 32  2  0
 29 33  1  0
  7 10  1  0
 17 22  1  0
 30 32  1  0
  4 34  1  0
 10 35  1  0
 11 36  1  0
 11 37  1  0
 13 38  1  0
 16 39  1  0
 19 40  1  0
 23 41  1  0
 24 42  1  0
 25 43  1  0
 27 44  1  0
 27 45  1  0
 27 46  1  0
 28 47  1  0
 28 48  1  0
 28 49  1  0
 30 50  1  0
 31 51  1  0
 31 52  1  0
 31 53  1  0
 32 54  1  0
 33 55  1  0
 33 56  1  0
 33 57  1  0
M  END
> <Name>
CHEMBL2087287

> <IC50 nM>
20

> <Molecule_ChEMBL_ID>
CHEMBL2087287

> <Smiles>
COc1cc(C(=O)c2cccc(C)c2)c(Oc2c(Br)cc(CC(=O)O)cc2Br)cc1C(C)C

$$$$
CHEMBL3261424
  SciTegic08162514323D

 67 71  0  0  1  0            999 V2000
    1.0760   -1.2010   -2.7440 S   0  0
    1.3730   -1.1460   -4.1640 O   0  0
    2.1040   -1.8710   -1.9690 O   0  0
    1.0590    0.4490   -2.1950 N   0  0
   -0.3940   -2.0490   -2.5350 C   0  0
    2.3090    1.1910   -2.2270 C   0  0  2  0  0  0
   -1.4570   -1.6520   -1.7030 C   0  0
   -0.7380   -3.2580   -3.1680 C   0  0
    2.1900    2.4770   -1.4080 C   0  0
    2.7400    1.4510   -3.6700 C   0  0
   -2.3890   -2.6130   -1.8560 N   0  0
   -1.5980   -0.4390   -0.8090 C   0  0
   -1.9770   -3.5610   -2.7130 N   0  0
    0.0570   -4.0920   -4.1530 C   0  0
    1.9790    2.1760    0.0160 N   0  0
   -2.7620   -4.7440   -3.0940 C   0  0
    1.8200    3.1820    0.9000 C   0  0
   -4.1990   -4.7010   -2.5800 C   0  0
   -2.2480   -6.0410   -2.4690 C   0  0
    1.6000    2.7870    2.2640 C   0  0
    1.8610    4.5530    0.5430 C   0  0
   -4.6560   -6.1290   -2.8480 C   0  0
   -3.4510   -6.9840   -2.4630 C   0  0
    1.4320    3.7950    3.2030 C   0  0
    1.5390    1.4750    2.7320 C   0  0
    1.6840    5.5470    1.5390 C   0  0
    1.2500    3.1040    4.3550 N   0  0
    1.4670    5.1740    2.8870 C   0  0
    1.3160    1.7620    4.0600 N   0  0
    1.0390    3.6230    5.5940 C   0  0
    1.6910    3.0720    6.7130 C   0  0
    0.1640    4.7150    5.7620 C   0  0
    1.4730    3.6090    7.9920 C   0  0
   -0.0530    5.2520    7.0430 C   0  0
    0.6000    4.6990    8.1580 C   0  0
    0.3930    5.2090    9.3710 F   0  0
    0.3560    0.9820   -2.7270 H   0  0
    2.9840    0.4880   -1.7420 H   0  0
    1.3630    3.0900   -1.7700 H   0  0
    3.0860    3.0880   -1.5160 H   0  0
    3.0060    0.5180   -4.1660 H   0  0
    1.9410    1.9380   -4.2310 H   0  0
    3.6130    2.1040   -3.7010 H   0  0
   -2.4450   -0.4820   -0.1250 H   0  0
   -1.7110    0.4550   -1.4240 H   0  0
   -0.6930   -0.3200   -0.2130 H   0  0
    1.0020   -3.6430   -4.4590 H   0  0
   -0.5390   -4.2620   -5.0490 H   0  0
    0.2770   -5.0650   -3.7110 H   0  0
    1.9510    1.2270    0.3280 H   0  0
   -2.7600   -4.8260   -4.1720 H   0  0
   -4.8050   -3.9750   -3.1020 H   0  0
   -4.2380   -4.4810   -1.5220 H   0  0
   -1.9160   -5.8790   -1.4510 H   0  0
   -1.4140   -6.4510   -3.0200 H   0  0
    2.0250    4.8540   -0.4830 H   0  0
   -5.5430   -6.3870   -2.2870 H   0  0
   -4.8810   -6.2540   -3.8990 H   0  0
   -3.5820   -7.4140   -1.4790 H   0  0
   -3.3220   -7.8030   -3.1580 H   0  0
    1.6310    0.5040    2.2620 H   0  0
    1.7170    6.5920    1.2670 H   0  0
    1.3300    5.9260    3.6500 H   0  0
    2.3670    2.2320    6.6050 H   0  0
   -0.3480    5.1520    4.9160 H   0  0
    1.9770    3.1840    8.8480 H   0  0
   -0.7250    6.0880    7.1660 H   0  0
  1  2  2  0
  1  3  2  0
  1  4  1  0
  1  5  1  0
  4  6  1  0
  5  7  1  0
  5  8  2  0
  6  9  1  0
  6 10  1  0
  7 11  2  0
  7 12  1  0
  8 13  1  0
  8 14  1  0
  9 15  1  0
 13 16  1  0
 15 17  1  0
 16 18  1  0
 16 19  1  0
 17 20  2  0
 17 21  1  0
 18 22  1  0
 19 23  1  0
 20 24  1  0
 20 25  1  0
 21 26  2  0
 24 27  1  0
 24 28  2  0
 25 29  2  0
 27 30  1  0
 30 31  2  0
 30 32  1  0
 31 33  1  0
 32 34  2  0
 33 35  2  0
 35 36  1  0
 11 13  1  0
 22 23  1  0
 26 28  1  0
 27 29  1  0
 34 35  1  0
  4 37  1  0
  6 38  1  0
  9 39  1  0
  9 40  1  0
 10 41  1  0
 10 42  1  0
 10 43  1  0
 12 44  1  0
 12 45  1  0
 12 46  1  0
 14 47  1  0
 14 48  1  0
 14 49  1  0
 15 50  1  0
 16 51  1  0
 18 52  1  0
 18 53  1  0
 19 54  1  0
 19 55  1  0
 21 56  1  0
 22 57  1  0
 22 58  1  0
 23 59  1  0
 23 60  1  0
 25 61  1  0
 26 62  1  0
 28 63  1  0
 31 64  1  0
 32 65  1  0
 33 66  1  0
 34 67  1  0
M  END
> <Name>
CHEMBL3261424

> <IC50 nM>
9.7

> <Molecule_ChEMBL_ID>
CHEMBL3261424

> <Smiles>
Cc1nn(C2CCCC2)c(C)c1S(=O)(=O)N[C@@H](C)CNc1cccc2c1cnn2-c1ccc(F)cc1

$$$$
CHEMBL3261415
  SciTegic08162514323D

 63 66  0  0  1  0            999 V2000
   -0.7950   -4.2520    0.2790 S   0  0
   -1.8420   -5.2580    0.3280 O   0  0
    0.0530   -4.3650   -0.8960 O   0  0
   -1.6050   -2.7210    0.1390 N   0  0
    0.1970   -4.4320    1.6840 C   0  0
   -2.3500   -2.4510   -1.0800 C   0  0  2  0  0  0
    0.3320   -5.6930    2.2910 C   0  0
    0.8670   -3.3140    2.2170 C   0  0
   -2.7150   -0.9690   -1.1700 C   0  0
   -3.5720   -3.3650   -1.1760 C   0  0
    1.1410   -5.8360    3.4360 C   0  0
   -0.3730   -6.8770    1.7320 C   0  0
    1.6740   -3.4610    3.3590 C   0  0
    0.7290   -1.9790    1.5800 C   0  0
   -1.5080   -0.1370   -1.2930 N   0  0
    1.8110   -4.7210    3.9690 C   0  0
   -1.6190    1.2050   -1.3610 C   0  0
    2.6620   -4.8750    5.1780 C   0  0
   -0.3870    1.9320   -1.4710 C   0  0
   -2.8630    1.8910   -1.3340 C   0  0
   -0.4630    3.3150   -1.5430 C   0  0
    0.8910    1.3690   -1.5080 C   0  0
   -2.8890    3.3050   -1.4120 C   0  0
    0.8420    3.6840   -1.6350 N   0  0
   -1.6800    4.0350   -1.5180 C   0  0
    1.6050    2.5410   -1.6130 N   0  0
    1.3260    4.9490   -1.7320 C   0  0
    2.3560    5.2420   -2.6460 C   0  0
    0.8010    5.9710   -0.9180 C   0  0
    2.8570    6.5530   -2.7460 C   0  0
    1.3030    7.2790   -1.0200 C   0  0
    2.3320    7.5700   -1.9340 C   0  0
    2.8610    8.9550   -2.0390 C   0  0
   -2.2420   -2.5940    0.9390 H   0  0
   -1.6130   -2.7130   -1.8400 H   0  0
   -3.2770   -0.6560   -0.2890 H   0  0
   -3.3670   -0.7830   -2.0230 H   0  0
   -3.2660   -4.4020   -1.3070 H   0  0
   -4.1840   -3.2850   -0.2770 H   0  0
   -4.1930   -3.0900   -2.0270 H   0  0
    1.2440   -6.8050    3.9020 H   0  0
   -0.2990   -6.9730    0.6500 H   0  0
   -1.4300   -6.8260    1.9920 H   0  0
    0.0350   -7.7850    2.1760 H   0  0
    2.1880   -2.6050    3.7720 H   0  0
    0.7730   -1.9940    0.4900 H   0  0
    1.5220   -1.3200    1.9360 H   0  0
   -0.2270   -1.5370    1.8670 H   0  0
   -0.6050   -0.5640   -1.3240 H   0  0
    3.1370   -3.9530    5.5120 H   0  0
    3.4490   -5.6020    4.9770 H   0  0
    2.0610   -5.2580    6.0000 H   0  0
   -3.7930    1.3460   -1.2520 H   0  0
    1.2640    0.3540   -1.4730 H   0  0
   -3.8340    3.8280   -1.3910 H   0  0
   -1.6930    5.1150   -1.5780 H   0  0
    2.7730    4.4730   -3.2810 H   0  0
    0.0100    5.7660   -0.2090 H   0  0
    3.6470    6.7720   -3.4490 H   0  0
    0.8960    8.0610   -0.3930 H   0  0
    2.3890    9.6700   -1.3650 H   0  0
    2.7290    9.3190   -3.0590 H   0  0
    3.9300    8.9530   -1.8240 H   0  0
  1  2  2  0
  1  3  2  0
  1  4  1  0
  1  5  1  0
  4  6  1  0
  5  7  2  0
  5  8  1  0
  6  9  1  0
  6 10  1  0
  7 11  1  0
  7 12  1  0
  8 13  2  0
  8 14  1  0
  9 15  1  0
 11 16  2  0
 15 17  1  0
 16 18  1  0
 17 19  2  0
 17 20  1  0
 19 21  1  0
 19 22  1  0
 20 23  2  0
 21 24  1  0
 21 25  2  0
 22 26  2  0
 24 27  1  0
 27 28  2  0
 27 29  1  0
 28 30  1  0
 29 31  2  0
 30 32  2  0
 32 33  1  0
 13 16  1  0
 23 25  1  0
 24 26  1  0
 31 32  1  0
  4 34  1  0
  6 35  1  0
  9 36  1  0
  9 37  1  0
 10 38  1  0
 10 39  1  0
 10 40  1  0
 11 41  1  0
 12 42  1  0
 12 43  1  0
 12 44  1  0
 13 45  1  0
 14 46  1  0
 14 47  1  0
 14 48  1  0
 15 49  1  0
 18 50  1  0
 18 51  1  0
 18 52  1  0
 20 53  1  0
 22 54  1  0
 23 55  1  0
 25 56  1  0
 28 57  1  0
 29 58  1  0
 30 59  1  0
 31 60  1  0
 33 61  1  0
 33 62  1  0
 33 63  1  0
M  END
> <Name>
CHEMBL3261415

> <IC50 nM>
12

> <Molecule_ChEMBL_ID>
CHEMBL3261415

> <Smiles>
Cc1ccc(-n2ncc3c(NC[C@H](C)NS(=O)(=O)c4c(C)cc(C)cc4C)cccc32)cc1

$$$$
CHEMBL3261172
  SciTegic08162514323D

 52 54  0  0  1  0            999 V2000
   -2.6950   -0.9060   -0.2870 S   0  0
   -4.0220   -0.3160   -0.3650 O   0  0
   -2.3850   -1.7720   -1.4100 O   0  0
   -1.5740    0.4220   -0.3810 N   0  0
   -2.6020   -1.8420    1.1640 C   0  0
   -1.5060    1.1700   -1.6250 C   0  0  2  0  0  0
   -3.7640   -2.4360    1.6930 C   0  0
   -1.3650   -2.0100    1.8150 C   0  0
   -0.2500    2.0410   -1.6580 C   0  0
   -2.7870    1.9750   -1.8380 C   0  0
   -3.6860   -3.1970    2.8730 C   0  0
   -5.0720   -2.2640    1.0100 C   0  0
   -1.2910   -2.7720    2.9940 C   0  0
   -0.1350   -1.3850    1.2600 C   0  0
    0.9650    1.2130   -1.6680 N   0  0
   -2.4510   -3.3650    3.5240 C   0  0
    2.1740    1.7950   -1.6820 C   0  0
   -2.3710   -4.1700    4.7700 C   0  0
    3.3500    1.0040   -1.6820 C   0  0
    2.2850    3.2090   -1.6950 C   0  0
    4.6250    1.6210   -1.6950 C   0  0
    3.5570    3.8300   -1.7090 C   0  0
    4.7360    3.0490   -1.7090 C   0  0
    5.8050    0.8300   -1.6950 C   0  0
    5.9830    3.6520   -1.7210 N   0  0
    7.0690    1.4690   -1.7090 C   0  0
    7.1290    2.8850   -1.7230 C   0  0
   -1.7640    1.0860    0.3830 H   0  0
   -1.4320    0.3610   -2.3540 H   0  0
   -0.2210    2.7070   -0.7970 H   0  0
   -0.2500    2.6860   -2.5350 H   0  0
   -3.6370    1.3110   -2.0020 H   0  0
   -2.9920    2.6070   -0.9770 H   0  0
   -2.6970    2.6190   -2.7130 H   0  0
   -4.5760   -3.6540    3.2790 H   0  0
   -5.0390   -2.4040   -0.0700 H   0  0
   -5.4550   -1.2600    1.2050 H   0  0
   -5.7910   -2.9770    1.4160 H   0  0
   -0.3420   -2.9000    3.4940 H   0  0
   -0.0410   -1.4610    0.1780 H   0  0
    0.7420   -1.8550    1.7050 H   0  0
   -0.1130   -0.3260    1.5230 H   0  0
    0.8910    0.2150   -1.6660 H   0  0
   -1.3690   -4.2380    5.1950 H   0  0
   -2.7190   -5.1840    4.5700 H   0  0
   -3.0230   -3.7340    5.5260 H   0  0
    3.2750   -0.0760   -1.6700 H   0  0
    1.4020    3.8320   -1.6950 H   0  0
    3.6090    4.9100   -1.7190 H   0  0
    5.7520   -0.2500   -1.6860 H   0  0
    7.9750    0.8830   -1.7110 H   0  0
    8.0920    3.3730   -1.7320 H   0  0
  1  2  2  0
  1  3  2  0
  1  4  1  0
  1  5  1  0
  4  6  1  0
  5  7  2  0
  5  8  1  0
  6  9  1  0
  6 10  1  0
  7 11  1  0
  7 12  1  0
  8 13  2  0
  8 14  1  0
  9 15  1  0
 11 16  2  0
 15 17  1  0
 16 18  1  0
 17 19  2  0
 17 20  1  0
 19 21  1  0
 20 22  2  0
 21 23  1  0
 21 24  2  0
 23 25  2  0
 24 26  1  0
 25 27  1  0
 13 16  1  0
 22 23  1  0
 26 27  2  0
  4 28  1  0
  6 29  1  0
  9 30  1  0
  9 31  1  0
 10 32  1  0
 10 33  1  0
 10 34  1  0
 11 35  1  0
 12 36  1  0
 12 37  1  0
 12 38  1  0
 13 39  1  0
 14 40  1  0
 14 41  1  0
 14 42  1  0
 15 43  1  0
 18 44  1  0
 18 45  1  0
 18 46  1  0
 19 47  1  0
 20 48  1  0
 22 49  1  0
 24 50  1  0
 26 51  1  0
 27 52  1  0
M  END
> <Name>
CHEMBL3261172

> <IC50 nM>
10000

> <Molecule_ChEMBL_ID>
CHEMBL3261172

> <Smiles>
Cc1cc(C)c(S(=O)(=O)N[C@@H](C)CNc2ccc3ncccc3c2)c(C)c1

$$$$
CHEMBL3358945
  SciTegic08162514323D

 58 60  0  0  1  0            999 V2000
   -2.3790    2.3710    3.0980 S   0  0
   -3.6290    2.3380    3.8380 O   0  0
   -1.5020    3.4550    3.5080 O   0  0
   -1.5450    0.8990    3.5000 N   0  0
   -2.7440    2.5720    1.4220 C   0  0
   -2.8280    1.4530    0.5720 C   0  0
   -2.9590    3.8650    0.9100 C   0  0
   -3.1270    1.6310   -0.7890 C   0  0
   -2.6040    0.0840    1.1070 C   0  0
   -3.2560    4.0390   -0.4510 C   0  0
   -3.3420    2.9240   -1.3010 C   0  0
   -2.8990   -0.9860    0.0570 C   0  0
   -3.3690   -0.1420    2.4120 C   0  0
   -1.1060    0.2950    1.3320 C   0  0
   -1.6370   -1.4780   -0.6520 C   0  0  1  0  0  0
   -0.7190   -1.9060    0.3280 O   0  0
   -2.0510   -2.6930   -1.4820 C   0  0
   -0.9670   -0.3910   -1.4920 C   0  0
   -2.3690   -3.7320   -0.6460 F   0  0
   -1.0120   -3.0660   -2.2970 F   0  0
   -3.1410   -2.3750   -2.2500 F   0  0
    0.5410   -0.4960   -1.4280 C   0  0
    1.3960    0.6330   -1.3520 N   0  0
    1.3360   -1.6600   -1.4300 C   0  0
    2.6910    0.1450   -1.3070 C   0  0
    2.6110   -1.2250   -1.3550 C   0  0
    3.9650    0.7440   -1.2270 C   0  0
    3.7890   -2.0250   -1.3280 C   0  0
    5.1430    0.0290   -1.1930 N   0  0
    5.0490   -1.3570   -1.2460 C   0  0
    6.4840   -2.2890   -1.2090 S   0  0
    6.5880   -3.0190   -2.4590 O   0  0
    6.4380   -3.1540   -0.0430 O   0  0
    7.8930   -1.1950   -1.0610 C   0  0
   -0.5330    1.0840    3.5630 H   0  0
   -1.8670    0.5610    4.4160 H   0  0
   -2.8950    4.7250    1.5630 H   0  0
   -3.1930    0.7790   -1.4490 H   0  0
   -3.4200    5.0310   -0.8460 H   0  0
   -3.5700    3.0590   -2.3480 H   0  0
   -3.6310   -0.6250   -0.6660 H   0  0
   -3.4430   -1.8200    0.4980 H   0  0
   -3.6820    0.7950    2.8690 H   0  0
   -2.7500   -0.6760    3.1350 H   0  0
   -4.2640   -0.7400    2.2340 H   0  0
   -0.9040    1.3180    1.6480 H   0  0
   -0.7310   -0.3910    2.0900 H   0  0
   -0.5510    0.1150    0.4120 H   0  0
   -1.2230   -2.3940    0.9980 H   0  0
   -1.2770    0.6000   -1.1580 H   0  0
   -1.2910   -0.4510   -2.5310 H   0  0
    1.1190    1.5880   -1.3340 H   0  0
    0.9900   -2.6850   -1.4790 H   0  0
    4.0230    1.8220   -1.1880 H   0  0
    3.7360   -3.1030   -1.3670 H   0  0
    8.0430   -0.7930   -0.0590 H   0  0
    7.7740   -0.3550   -1.7440 H   0  0
    8.7990   -1.7300   -1.3440 H   0  0
  1  2  2  0
  1  3  2  0
  1  4  1  0
  1  5  1  0
  5  6  2  0
  5  7  1  0
  6  8  1  0
  6  9  1  0
  7 10  2  0
  8 11  2  0
  9 12  1  0
  9 13  1  0
  9 14  1  0
 12 15  1  0
 15 16  1  0
 15 17  1  0
 15 18  1  0
 17 19  1  0
 17 20  1  0
 17 21  1  0
 18 22  1  0
 22 23  1  0
 22 24  2  0
 23 25  1  0
 24 26  1  0
 25 27  1  0
 26 28  1  0
 27 29  2  0
 28 30  2  0
 30 31  1  0
 31 32  2  0
 31 33  2  0
 31 34  1  0
 10 11  1  0
 25 26  2  0
 29 30  1  0
  4 35  1  0
  4 36  1  0
  7 37  1  0
  8 38  1  0
 10 39  1  0
 11 40  1  0
 12 41  1  0
 12 42  1  0
 13 43  1  0
 13 44  1  0
 13 45  1  0
 14 46  1  0
 14 47  1  0
 14 48  1  0
 16 49  1  0
 18 50  1  0
 18 51  1  0
 23 52  1  0
 24 53  1  0
 27 54  1  0
 28 55  1  0
 34 56  1  0
 34 57  1  0
 34 58  1  0
M  END
> <Name>
CHEMBL3358945

> <IC50 nM>
180

> <Molecule_ChEMBL_ID>
CHEMBL3358945

> <Smiles>
CC(C)(CC(O)(Cc1cc2cc(S(C)(=O)=O)ncc2[nH]1)C(F)(F)F)c1ccccc1S(N)(=O)=O

$$$$
CHEMBL70249
  SciTegic08162514323D

 55 57  0  0  0  0            999 V2000
    1.2580   -2.1660    3.4050 S   0  0
    0.2170   -1.5310    4.1940 O   0  0
    0.9200   -3.5160    2.9910 O   0  0
    1.4630   -1.2810    2.0630 N   0  0
    2.7640   -2.2210    4.3710 C   0  0
    0.4220   -1.1190    1.1840 C   0  0
    0.5700   -0.3530    0.0020 C   0  0
   -0.8150   -1.7300    1.4730 C   0  0
   -0.5270   -0.2110   -0.8810 C   0  0
    1.8790    0.2990   -0.3120 C   0  0
   -1.8990   -1.5840    0.5960 C   0  0
   -0.4220    0.5230   -2.0350 N   0  0
   -1.7560   -0.8260   -0.5780 C   0  0
   -0.2540    1.9820   -1.9920 C   0  0
   -0.4770   -0.1500   -3.3420 C   0  0
   -0.6780    2.5450   -0.6830 C   0  0
    0.3120   -1.4080   -3.3420 C   0  0
    0.2690    3.1370    0.1700 C   0  0
   -2.0270    2.4840   -0.2970 C   0  0
   -0.3460   -2.6520   -3.3420 C   0  0
    1.7190   -1.3590   -3.3420 C   0  0
   -0.1310    3.6660    1.4070 C   0  0
   -2.4280    3.0160    0.9420 C   0  0
    0.4020   -3.8440   -3.3420 C   0  0
    2.4650   -2.5510   -3.3420 C   0  0
   -1.4830    3.6080    1.7970 C   0  0
    1.8070   -3.7930   -3.3420 C   0  0
   -1.8580    4.1060    2.9570 O   0  0
   -3.2400    4.0720    3.2820 C   0  0
    2.3460   -0.8530    1.8770 H   0  0
    2.6850   -2.8030    5.2870 H   0  0
    3.0550   -1.2070    4.6450 H   0  0
    3.5640   -2.6480    3.7700 H   0  0
   -0.9450   -2.3180    2.3710 H   0  0
    1.9180    0.7770   -1.2910 H   0  0
    2.6740   -0.4450   -0.2730 H   0  0
    2.0960    1.0590    0.4380 H   0  0
   -2.8440   -2.0550    0.8230 H   0  0
   -2.6060   -0.7280   -1.2400 H   0  0
    0.7930    2.2290   -2.1720 H   0  0
   -0.8440    2.4360   -2.7910 H   0  0
   -0.0900    0.5220   -4.1070 H   0  0
   -1.5160   -0.3710   -3.5860 H   0  0
    1.3100    3.1860   -0.1230 H   0  0
   -2.7620    2.0310   -0.9470 H   0  0
   -1.4240   -2.6970   -3.3420 H   0  0
    2.2300   -0.4080   -3.3420 H   0  0
    0.6000    4.1190    2.0590 H   0  0
   -3.4670    2.9690    1.2350 H   0  0
   -0.1040   -4.7970   -3.3420 H   0  0
    3.5430   -2.5120   -3.3420 H   0  0
    2.3790   -4.7070   -3.3420 H   0  0
   -3.3650    4.4670    4.2890 H   0  0
   -3.7890    4.5840    2.4910 H   0  0
   -3.5630    3.0310    3.2890 H   0  0
  1  2  2  0
  1  3  2  0
  1  4  1  0
  1  5  1  0
  4  6  1  0
  6  7  2  0
  6  8  1  0
  7  9  1  0
  7 10  1  0
  8 11  2  0
  9 12  1  0
  9 13  2  0
 12 14  1  0
 12 15  1  0
 14 16  1  0
 15 17  1  0
 16 18  2  0
 16 19  1  0
 17 20  2  0
 17 21  1  0
 18 22  1  0
 19 23  2  0
 20 24  1  0
 21 25  2  0
 22 26  2  0
 24 27  2  0
 26 28  1  0
 28 29  1  0
 11 13  1  0
 23 26  1  0
 25 27  1  0
  4 30  1  0
  5 31  1  0
  5 32  1  0
  5 33  1  0
  8 34  1  0
 10 35  1  0
 10 36  1  0
 10 37  1  0
 11 38  1  0
 13 39  1  0
 14 40  1  0
 14 41  1  0
 15 42  1  0
 15 43  1  0
 18 44  1  0
 19 45  1  0
 20 46  1  0
 21 47  1  0
 22 48  1  0
 23 49  1  0
 24 50  1  0
 25 51  1  0
 27 52  1  0
 29 53  1  0
 29 54  1  0
 29 55  1  0
M  END
> <Name>
CHEMBL70249

> <IC50 nM>
100

> <Molecule_ChEMBL_ID>
CHEMBL70249

> <Smiles>
COc1ccc(CN(Cc2ccccc2)c2cccc(NS(C)(=O)=O)c2C)cc1

$$$$
CHEMBL2023617
  SciTegic08162514323D

 82 89  0  0  1  0            999 V2000
   -8.3240   -4.5410    4.2480 F   0  0
   -7.8570   -3.7790    3.2620 C   0  0
   -8.7190   -3.3380    2.2440 C   0  0
   -6.5000   -3.4140    3.2380 C   0  0
   -8.2270   -2.5310    1.2030 C   0  0
   -6.0040   -2.6080    2.1990 C   0  0
   -6.8670   -2.1640    1.1780 C   0  0
   -6.3890   -1.3870    0.1720 N   0  0
   -6.6660   -1.5680   -1.1480 N   0  0
   -5.5610   -0.3170    0.3200 C   0  0
   -6.0700   -0.6490   -1.9530 C   0  0
   -5.4140    0.1110   -0.9880 C   0  0
   -4.9140    0.3010    1.4900 C   0  0
   -4.5900    1.3610   -1.2480 C   0  0
   -3.9550    1.2300    1.2770 C   0  0
   -3.5470    1.6970   -0.1250 C   0  0  1  0  0  0
   -3.1450    1.7930    2.4160 C   0  0
   -2.1620    1.0000   -0.3160 C   0  0  1  0  0  0
   -3.3730    3.2250   -0.1210 C   0  0
   -1.7170    1.2440    2.2440 C   0  0
   -1.5310    1.1030   -1.7340 C   0  0  1  0  0  0
   -1.1560    1.4200    0.8070 C   0  0  1  0  0  0
   -1.3810    2.4570   -2.1210 O   0  0
   -0.1700    0.3790   -1.8380 C   0  0
    0.1020    0.5490    0.6450 C   0  0  1  0  0  0
    0.7990    0.7670   -0.7070 C   0  0  1  0  0  0
    1.2440    0.7730    1.6350 C   0  0
    2.0720   -0.0940   -0.5290 C   0  0  1  0  0  0
    1.2440    2.2340   -0.8460 C   0  0
    2.4900    0.2360    0.9180 C   0  0
    1.7660   -1.4770   -0.6070 O   0  0
    3.1540    0.1680   -1.5510 C   0  0
    2.8830    0.5840   -2.6520 O   0  0
    4.5800   -0.1060   -1.1540 C   0  0
    5.3730   -0.2700   -2.3220 O   0  0
    6.6800   -0.5220   -2.1660 C   0  0
    7.2110   -0.6150   -0.8930 N   0  0
    7.5080   -0.6920   -3.3030 C   0  0
    8.5630   -0.8750   -0.7300 C   0  0
    8.8580   -0.9510   -3.1540 N   0  0
    9.4030   -1.0470   -1.8830 C   0  0
    9.1250   -0.9750    0.5660 C   0  0
   10.7830   -1.3130   -1.7070 C   0  0
   10.5060   -1.2380    0.7250 C   0  0
   11.3320   -1.4060   -0.4080 C   0  0
   -9.7640   -3.6150    2.2580 H   0  0
   -5.8340   -3.7500    4.0200 H   0  0
   -8.9060   -2.2030    0.4280 H   0  0
   -4.9570   -2.3380    2.1990 H   0  0
   -6.1270   -0.5680   -3.0310 H   0  0
   -5.1820   -0.0020    2.4920 H   0  0
   -5.3180    2.1720   -1.3050 H   0  0
   -4.1410    1.3260   -2.2380 H   0  0
   -3.1500    2.8850    2.3930 H   0  0
   -3.5570    1.4960    3.3810 H   0  0
   -2.3420   -0.0700   -0.1840 H   0  0
   -4.2580    3.7130    0.2910 H   0  0
   -2.5020    3.5120    0.4690 H   0  0
   -3.2290    3.6000   -1.1330 H   0  0
   -1.0550    1.7250    2.9650 H   0  0
   -1.7250    0.1840    2.5040 H   0  0
   -2.1890    0.6460   -2.4690 H   0  0
   -0.8980    2.4730    0.6780 H   0  0
   -1.1740    2.4610   -3.0700 H   0  0
   -0.3690   -0.6930   -1.8030 H   0  0
    0.2890    0.5600   -2.8110 H   0  0
   -0.2050   -0.4860    0.7270 H   0  0
    1.3570    1.8240    1.8480 H   0  0
    1.0650    0.2710    2.5720 H   0  0
    2.0530    2.4800   -0.1600 H   0  0
    0.4140    2.9100   -0.6390 H   0  0
    1.5920    2.4350   -1.8590 H   0  0
    3.2560    1.0000    0.9340 H   0  0
    2.9040   -0.6170    1.4390 H   0  0
    2.5610   -1.9610   -0.3380 H   0  0
    4.6350   -1.0270   -0.5760 H   0  0
    4.9770    0.7360   -0.5880 H   0  0
    7.0860   -0.6170   -4.2950 H   0  0
    8.5100   -0.8500    1.4470 H   0  0
   11.4320   -1.4450   -2.5630 H   0  0
   10.9280   -1.3110    1.7170 H   0  0
   12.3850   -1.6090   -0.2810 H   0  0
  1  2  1  0
  2  3  2  0
  2  4  1  0
  3  5  1  0
  4  6  2  0
  5  7  2  0
  7  8  1  0
  8  9  1  0
  8 10  1  0
  9 11  2  0
 10 12  2  0
 10 13  1  0
 12 14  1  0
 13 15  2  0
 14 16  1  0
 15 17  1  0
 16 18  1  0
 16 19  1  0
 17 20  1  0
 18 21  1  0
 18 22  1  0
 21 23  1  0
 21 24  1  0
 22 25  1  0
 24 26  1  0
 25 27  1  0
 26 28  1  0
 26 29  1  0
 27 30  1  0
 28 31  1  0
 28 32  1  0
 32 33  2  0
 32 34  1  0
 34 35  1  0
 35 36  1  0
 36 37  2  0
 36 38  1  0
 37 39  1  0
 38 40  2  0
 39 41  1  0
 39 42  2  0
 41 43  2  0
 42 44  1  0
 43 45  1  0
  6  7  1  0
 11 12  1  0
 15 16  1  0
 22 20  1  0
 25 26  1  0
 28 30  1  0
 40 41  1  0
 44 45  2  0
  3 46  1  0
  4 47  1  0
  5 48  1  0
  6 49  1  0
 11 50  1  0
 13 51  1  0
 14 52  1  0
 14 53  1  0
 17 54  1  0
 17 55  1  0
 18 56  1  0
 19 57  1  0
 19 58  1  0
 19 59  1  0
 20 60  1  0
 20 61  1  0
 21 62  1  0
 22 63  1  0
 23 64  1  0
 24 65  1  0
 24 66  1  0
 25 67  1  0
 27 68  1  0
 27 69  1  0
 29 70  1  0
 29 71  1  0
 29 72  1  0
 30 73  1  0
 30 74  1  0
 31 75  1  0
 34 76  1  0
 34 77  1  0
 38 78  1  0
 42 79  1  0
 43 80  1  0
 44 81  1  0
 45 82  1  0
M  END
> <Name>
CHEMBL2023617

> <IC50 nM>
1.89

> <Molecule_ChEMBL_ID>
CHEMBL2023617

> <Smiles>
C[C@]12Cc3cnn(-c4ccc(F)cc4)c3C=C1CC[C@@H]1[C@@H]2[C@@H](O)C[C@@]2(C)[C@H]1CC[C@]2(O)C(=O)COc1cnc2ccccc2n1

$$$$
CHEMBL2024023
  SciTegic08162514323D

 71 76  0  0  1  0            999 V2000
   -4.1520   -2.0650   -1.1190 S   0  0
   -5.7460   -1.5550   -0.8770 C   0  0
   -3.2250   -0.6660   -0.6210 C   0  0
   -6.3650   -0.4000   -0.4260 N   0  0
   -6.5650   -2.6540   -1.2660 C   0  0
   -1.7560   -0.9570   -0.7770 C   0  0
   -7.7380   -0.2830   -0.3400 C   0  0
   -7.9770   -2.5720   -1.1910 C   0  0
   -1.3670   -2.0680   -1.0470 O   0  0
   -0.7830    0.1820   -0.5840 C   0  0  2  0  0  0
   -8.5760   -1.3750   -0.7230 C   0  0
   -8.3360    0.9140    0.1290 C   0  0
   -0.7990    0.9450   -1.7790 O   0  0
    0.6600   -0.2540   -0.2250 C   0  0  2  0  0  0
   -1.1430    1.1090    0.5940 C   0  0
   -9.9870   -1.2640   -0.6370 C   0  0
   -9.7440    1.0230    0.2130 C   0  0
    1.2660    1.0700    0.2540 C   0  0  1  0  0  0
    1.5570   -0.7830   -1.3610 C   0  0
    0.5620   -1.2580    0.9360 C   0  0
    0.1800    1.6210    1.1800 C   0  0
  -10.5670   -0.0630   -0.1680 C   0  0
    2.6700    0.8980    0.8570 C   0  0  1  0  0  0
    3.0290   -0.9550   -0.9180 C   0  0  1  0  0  0
    3.6150    0.3100   -0.2230 C   0  0  2  0  0  0
    3.1720    2.2790    1.3070 C   0  0
    3.1310   -2.0980   -0.0900 O   0  0
    5.0920    0.1820    0.2790 C   0  0  2  0  0  0
    4.6050    2.2230    1.8380 C   0  0
    5.5630    1.4900    0.9160 C   0  0
    5.9960   -0.2150   -0.9180 C   0  0
    5.2250   -0.8670    1.3930 C   0  0
    6.7970    1.9920    0.6990 C   0  0
    7.4960   -0.0760   -0.6250 C   0  0
    7.8150    1.3030   -0.1090 C   0  0
    8.8730    1.8340   -0.3500 O   0  0
   -3.5000    0.1890   -1.2380 H   0  0
   -3.4490   -0.4320    0.4200 H   0  0
   -6.1230   -3.5720   -1.6230 H   0  0
   -8.5760   -3.4200   -1.4900 H   0  0
   -7.7270    1.7560    0.4260 H   0  0
   -1.6820    1.3380   -1.8570 H   0  0
   -1.6720    0.5620    1.3630 H   0  0
   -1.7910    1.9240    0.3050 H   0  0
  -10.6310   -2.0840   -0.9240 H   0  0
  -10.1940    1.9390    0.5700 H   0  0
    1.3520    1.7460   -0.5880 H   0  0
    1.1560   -1.7210   -1.7540 H   0  0
    1.5410   -0.0840   -2.1970 H   0  0
   -0.1990   -0.9710    1.6600 H   0  0
    1.5140   -1.3300    1.4630 H   0  0
    0.3120   -2.2520    0.5660 H   0  0
    0.2090    2.6990    1.2270 H   0  0
    0.3120    1.2480    2.1860 H   0  0
  -11.6410    0.0290   -0.1000 H   0  0
    2.6310    0.2300    1.7190 H   0  0
    3.6170   -1.1840   -1.8070 H   0  0
    3.6410    1.0620   -1.0140 H   0  0
    2.5210    2.6870    2.0800 H   0  0
    3.1290    2.9770    0.4710 H   0  0
    2.9410   -2.8710   -0.6430 H   0  0
    4.9550    3.2400    2.0250 H   0  0
    4.6090    1.7190    2.8050 H   0  0
    5.7910   -1.2380   -1.2290 H   0  0
    5.7580    0.4140   -1.7770 H   0  0
    6.1470   -0.7150    1.9570 H   0  0
    4.3770   -0.8130    2.0760 H   0  0
    5.2520   -1.8730    0.9750 H   0  0
    7.0650    2.9410    1.1430 H   0  0
    7.8070   -0.8160    0.1130 H   0  0
    8.0720   -0.2730   -1.5310 H   0  0
  1  2  1  0
  1  3  1  0
  2  4  2  0
  2  5  1  0
  3  6  1  0
  4  7  1  0
  5  8  2  0
  6  9  2  0
  6 10  1  0
  7 11  1  0
  7 12  2  0
 10 13  1  0
 10 14  1  0
 10 15  1  0
 11 16  2  0
 12 17  1  0
 14 18  1  0
 14 19  1  0
 14 20  1  0
 15 21  1  0
 16 22  1  0
 18 23  1  0
 19 24  1  0
 25 23  1  0
 23 26  1  0
 24 27  1  0
 25 28  1  0
 26 29  1  0
 28 30  1  0
 28 31  1  0
 28 32  1  0
 30 33  2  0
 31 34  1  0
 33 35  1  0
 35 36  2  0
  8 11  1  0
 17 22  2  0
 18 21  1  0
 24 25  1  0
 29 30  1  0
 34 35  1  0
  3 37  1  0
  3 38  1  0
  5 39  1  0
  8 40  1  0
 12 41  1  0
 13 42  1  0
 15 43  1  0
 15 44  1  0
 16 45  1  0
 17 46  1  0
 18 47  1  0
 19 48  1  0
 19 49  1  0
 20 50  1  0
 20 51  1  0
 20 52  1  0
 21 53  1  0
 21 54  1  0
 22 55  1  0
 23 56  1  0
 24 57  1  0
 25 58  1  0
 26 59  1  0
 26 60  1  0
 27 61  1  0
 29 62  1  0
 29 63  1  0
 31 64  1  0
 31 65  1  0
 32 66  1  0
 32 67  1  0
 32 68  1  0
 33 69  1  0
 34 70  1  0
 34 71  1  0
M  END
> <Name>
CHEMBL2024023

> <IC50 nM>
6.6

> <Molecule_ChEMBL_ID>
CHEMBL2024023

> <Smiles>
C[C@]12CCC(=O)C=C1CC[C@@H]1[C@@H]2[C@@H](O)C[C@@]2(C)[C@H]1CC[C@]2(O)C(=O)CSc1ccc2ccccc2n1

$$$$
CHEMBL62118
  SciTegic08162514323D

 51 54  0  0  1  0            999 V2000
   -3.7500   -1.5880    0.5940 S   0  0
   -3.3950   -2.2500    1.8360 O   0  0
   -3.5370   -2.4160   -0.5800 O   0  0
   -5.4650   -1.3030    0.6760 N   0  0
   -2.7990   -0.2830    0.4470 N   0  0
   -5.9920   -0.6430    1.8570 C   0  0
   -6.1330   -0.8160   -0.5200 C   0  0
   -1.4690   -0.4280    0.3910 C   0  0
   -0.6270    0.7030    0.2710 C   0  0
   -0.8870   -1.7150    0.4470 C   0  0
    0.7890    0.5630    0.2110 C   0  0
    0.5150   -1.8690    0.3980 C   0  0
    1.3750   -0.7360    0.3110 C   0  0
    1.6760    1.7620    0.0680 C   0  0  1  0  0  0
    2.8570   -0.8500    0.3120 C   0  0
    2.9840    1.4450   -0.4300 O   0  0
    1.1130    2.8090   -0.8340 C   0  0
    3.6010    0.2910   -0.1090 C   0  0
    3.5760   -2.0250    0.7030 C   0  0
    0.7210    4.0550   -0.3090 C   0  0
    0.9730    2.5530   -2.2090 C   0  0
    5.0100    0.2380   -0.2090 C   0  0
    2.9730   -3.1210    1.1860 O   0  0
    4.9880   -2.0630    0.6050 C   0  0
    0.1890    5.0390   -1.1580 C   0  0
    0.4410    3.5390   -3.0590 C   0  0
    5.7030   -0.9380    0.1440 C   0  0
    3.6620   -4.3590    1.0920 C   0  0
    0.0510    4.7810   -2.5330 C   0  0
   -3.2050    0.6290    0.4000 H   0  0
   -5.5740   -1.0060    2.7970 H   0  0
   -7.0730   -0.7790    1.9000 H   0  0
   -5.7930    0.4280    1.7950 H   0  0
   -5.8260   -1.3130   -1.4400 H   0  0
   -5.9400    0.2500   -0.6350 H   0  0
   -7.2110   -0.9490   -0.4120 H   0  0
   -1.0700    1.6880    0.2280 H   0  0
   -1.5060   -2.5980    0.5250 H   0  0
    0.8810   -2.8830    0.4280 H   0  0
    1.8030    2.1990    1.0610 H   0  0
    0.8240    4.2580    0.7460 H   0  0
    1.2710    1.5980   -2.6190 H   0  0
    5.5600    1.1000   -0.5570 H   0  0
    5.5250   -2.9550    0.8890 H   0  0
   -0.1110    5.9940   -0.7560 H   0  0
    0.3340    3.3400   -4.1150 H   0  0
    6.7790   -0.9770    0.0620 H   0  0
    2.9650   -5.1580    1.3440 H   0  0
    4.1270   -4.4160    0.1070 H   0  0
    4.4570   -4.3630    1.8360 H   0  0
   -0.3580    5.5390   -3.1860 H   0  0
  1  2  2  0
  1  3  2  0
  1  4  1  0
  1  5  1  0
  4  6  1  0
  4  7  1  0
  5  8  1  0
  8  9  2  0
  8 10  1  0
  9 11  1  0
 10 12  2  0
 11 13  2  0
 11 14  1  0
 13 15  1  0
 14 16  1  0
 14 17  1  0
 15 18  2  0
 15 19  1  0
 17 20  2  0
 17 21  1  0
 18 22  1  0
 19 23  1  0
 19 24  2  0
 20 25  1  0
 21 26  2  0
 22 27  2  0
 23 28  1  0
 25 29  2  0
 12 13  1  0
 16 18  1  0
 24 27  1  0
 26 29  1  0
  5 30  1  0
  6 31  1  0
  6 32  1  0
  6 33  1  0
  7 34  1  0
  7 35  1  0
  7 36  1  0
  9 37  1  0
 10 38  1  0
 12 39  1  0
 14 40  1  0
 20 41  1  0
 21 42  1  0
 22 43  1  0
 24 44  1  0
 25 45  1  0
 26 46  1  0
 27 47  1  0
 28 48  1  0
 28 49  1  0
 28 50  1  0
 29 51  1  0
M  END
> <Name>
CHEMBL62118

> <IC50 nM>
41

> <Molecule_ChEMBL_ID>
CHEMBL62118

> <Smiles>
COc1cccc2c1-c1ccc(NS(=O)(=O)N(C)C)cc1C(c1ccccc1)O2

$$$$
CHEMBL65497
  SciTegic08162514323D

 47 50  0  0  1  0            999 V2000
   -4.4340   -1.7150    0.7830 S   0  0
   -4.2320   -2.5510   -0.3870 O   0  0
   -4.0660   -2.3730    2.0250 O   0  0
   -3.4840   -0.4120    0.6230 N   0  0
   -6.1560   -1.2440    0.8670 C   0  0
   -2.1520   -0.5570    0.5660 C   0  0
   -1.3110    0.5740    0.4470 C   0  0
   -1.5700   -1.8440    0.6210 C   0  0
    0.1050    0.4340    0.3870 C   0  0
   -0.1680   -2.0000    0.5740 C   0  0
    0.6910   -0.8650    0.4860 C   0  0
    0.9920    1.6330    0.2440 C   0  0  1  0  0  0
    2.1740   -0.9790    0.4880 C   0  0
    2.3010    1.3160   -0.2560 O   0  0
    0.4280    2.6800   -0.6580 C   0  0
    2.9180    0.1620    0.0660 C   0  0
    2.8930   -2.1540    0.8790 C   0  0
    0.3650    2.4550   -2.0450 C   0  0
   -0.0390    3.8930   -0.1230 C   0  0
    4.3260    0.1090   -0.0350 C   0  0
    2.2890   -3.2500    1.3590 O   0  0
    4.3050   -2.1910    0.7810 C   0  0
   -0.1660    3.4400   -2.8980 C   0  0
   -0.5700    4.8770   -0.9750 C   0  0
    5.0200   -1.0660    0.3180 C   0  0
    2.9880   -4.4820    1.2910 C   0  0
   -0.2270    3.2270   -4.1970 O   0  0
   -0.6330    4.6500   -2.3590 C   0  0
   -3.8910    0.5000    0.5660 H   0  0
   -6.8460   -2.0800    0.9770 H   0  0
   -6.4300   -0.7030   -0.0390 H   0  0
   -6.3090   -0.5740    1.7130 H   0  0
   -1.7540    1.5590    0.4040 H   0  0
   -2.1890   -2.7270    0.7010 H   0  0
    0.1970   -3.0120    0.6040 H   0  0
    1.1190    2.0700    1.2360 H   0  0
    0.7230    1.5230   -2.4590 H   0  0
    0.0080    4.0720    0.9410 H   0  0
    4.8770    0.9710   -0.3810 H   0  0
    4.8420   -3.0840    1.0640 H   0  0
   -0.9300    5.8090   -0.5630 H   0  0
    6.0960   -1.1070    0.2380 H   0  0
    2.2950   -5.2830    1.5470 H   0  0
    3.4630   -4.5510    0.3130 H   0  0
    3.7770   -4.4710    2.0430 H   0  0
   -0.5940    3.9120   -4.7720 H   0  0
   -1.0410    5.4100   -3.0100 H   0  0
  1  2  2  0
  1  3  2  0
  1  4  1  0
  1  5  1  0
  4  6  1  0
  6  7  2  0
  6  8  1  0
  7  9  1  0
  8 10  2  0
  9 11  2  0
  9 12  1  0
 11 13  1  0
 12 14  1  0
 12 15  1  0
 13 16  2  0
 13 17  1  0
 15 18  2  0
 15 19  1  0
 16 20  1  0
 17 21  1  0
 17 22  2  0
 18 23  1  0
 19 24  2  0
 20 25  2  0
 21 26  1  0
 23 27  1  0
 23 28  2  0
 10 11  1  0
 14 16  1  0
 22 25  1  0
 24 28  1  0
  4 29  1  0
  5 30  1  0
  5 31  1  0
  5 32  1  0
  7 33  1  0
  8 34  1  0
 10 35  1  0
 12 36  1  0
 18 37  1  0
 19 38  1  0
 20 39  1  0
 22 40  1  0
 24 41  1  0
 25 42  1  0
 26 43  1  0
 26 44  1  0
 26 45  1  0
 27 46  1  0
 28 47  1  0
M  END
> <Name>
CHEMBL65497

> <IC50 nM>
216

> <Molecule_ChEMBL_ID>
CHEMBL65497

> <Smiles>
COc1cccc2c1-c1ccc(NS(C)(=O)=O)cc1C(c1cccc(O)c1)O2

$$$$
CHEMBL1917253
  SciTegic08162514323D

 77 83  0  0  1  0            999 V2000
   -3.9140   -2.2620    0.5490 S   0  0
   -5.5060   -1.8130    0.8790 C   0  0
   -3.2740   -0.8420   -0.2460 C   0  0
   -6.6490   -2.3520    1.4780 O   0  0
   -5.7070   -0.5220    0.3960 N   0  0
   -1.8320   -1.0760   -0.6090 C   0  0
   -7.5200   -1.3440    1.3340 C   0  0
   -6.9880   -0.2520    0.6970 C   0  0
   -1.4770   -2.1230   -1.1000 O   0  0
   -0.8420    0.0350   -0.3460 C   0  0  2  0  0  0
   -8.8600   -1.3770    1.7810 C   0  0
   -7.7720    0.9020    0.4610 C   0  0
   -0.7740    0.8280   -1.5270 O   0  0
    0.5700   -0.4360    0.0510 C   0  0  2  0  0  0
   -1.2320    0.9410    0.8320 C   0  0
   -9.6660   -0.2320    1.5550 C   0  0
   -9.1230    0.9060    0.8960 C   0  0
   -1.9770    1.1560   -1.9860 C   0  0
    1.1700    0.8940    0.5210 C   0  0  1  0  0  0
    1.4570   -0.9630   -1.0900 C   0  0
    0.4410   -1.4430    1.2030 C   0  0
    0.0820    1.4450    1.4410 C   0  0
   -2.7030    1.9630   -1.4550 O   0  0
   -2.4040    0.4820   -3.2030 C   0  0
    2.5760    0.7250    1.1230 C   0  0  1  0  0  0
    2.9320   -1.1330   -0.6520 C   0  0  1  0  0  0
   -1.4980   -0.3070   -3.8460 O   0  0
   -3.6490    0.5210   -3.8340 C   0  0
    3.5180    0.1370    0.0390 C   0  0  2  0  0  0
    3.0780    2.1070    1.5720 C   0  0
    3.0330   -2.2700    0.1840 O   0  0
   -2.1950   -0.7790   -4.9200 C   0  0
   -3.5120   -0.3010   -4.9510 C   0  0
    4.9980    0.0160    0.5310 C   0  0  2  0  0  0
    4.5160    2.0550    2.0900 C   0  0
    5.4670    1.3260    1.1640 C   0  0
    5.8970   -0.3810   -0.6700 C   0  0
    5.1430   -1.0290    1.6450 C   0  0
    6.6990    1.8340    0.9360 C   0  0
    7.3970   -0.2380   -0.3890 C   0  0
    7.7130    1.1440    0.1210 C   0  0
    8.7700    1.6780   -0.1290 O   0  0
   -3.8540   -0.6350   -1.1470 H   0  0
   -3.3520    0.0160    0.4240 H   0  0
   -9.2600   -2.2480    2.2810 H   0  0
   -7.3560    1.7660   -0.0390 H   0  0
   -1.7850    0.3910    1.5800 H   0  0
   -1.8610    1.7580    0.5120 H   0  0
  -10.6960   -0.2230    1.8830 H   0  0
   -9.7420    1.7750    0.7270 H   0  0
    1.2520    1.5640   -0.3240 H   0  0
    1.0570   -1.9000   -1.4770 H   0  0
    1.4280   -0.2640   -1.9260 H   0  0
   -0.3300   -1.1520    1.9140 H   0  0
    1.3830   -1.5270    1.7480 H   0  0
    0.1890   -2.4340    0.8220 H   0  0
    0.1150    2.5230    1.4920 H   0  0
    0.1990    1.0640    2.4450 H   0  0
    2.5390    0.0570    1.9840 H   0  0
    3.5180   -1.3630   -1.5410 H   0  0
   -4.5290    1.0700   -3.5240 H   0  0
    3.5370    0.8890   -0.7540 H   0  0
    2.4300    2.5140    2.3480 H   0  0
    3.0290    2.8050    0.7340 H   0  0
    2.8320   -3.0450   -0.3630 H   0  0
   -1.7700   -1.4490   -5.6540 H   0  0
   -4.2680   -0.5230   -5.6930 H   0  0
    4.8630    3.0720    2.2730 H   0  0
    4.5270    1.5530    3.0590 H   0  0
    5.6890   -1.4060   -0.9770 H   0  0
    5.6500    0.2460   -1.5270 H   0  0
    6.0550   -0.8610    2.2150 H   0  0
    4.2890   -0.9920    2.3220 H   0  0
    5.1910   -2.0350    1.2270 H   0  0
    6.9670    2.7830    1.3750 H   0  0
    7.7130   -0.9730    0.3530 H   0  0
    7.9670   -0.4360   -1.2970 H   0  0
  1  2  1  0
  1  3  1  0
  2  4  1  0
  2  5  2  0
  3  6  1  0
  4  7  1  0
  5  8  1  0
  6  9  2  0
  6 10  1  0
  7 11  1  0
  8 12  1  0
 10 13  1  0
 10 14  1  0
 10 15  1  0
 11 16  2  0
 12 17  2  0
 13 18  1  0
 14 19  1  0
 14 20  1  0
 14 21  1  0
 15 22  1  0
 18 23  2  0
 18 24  1  0
 19 25  1  0
 20 26  1  0
 24 27  1  0
 24 28  2  0
 29 25  1  0
 25 30  1  0
 26 31  1  0
 27 32  1  0
 28 33  1  0
 29 34  1  0
 30 35  1  0
 34 36  1  0
 34 37  1  0
 34 38  1  0
 36 39  2  0
 37 40  1  0
 39 41  1  0
 41 42  2  0
  7  8  2  0
 16 17  1  0
 19 22  1  0
 26 29  1  0
 32 33  2  0
 35 36  1  0
 40 41  1  0
  3 43  1  0
  3 44  1  0
 11 45  1  0
 12 46  1  0
 15 47  1  0
 15 48  1  0
 16 49  1  0
 17 50  1  0
 19 51  1  0
 20 52  1  0
 20 53  1  0
 21 54  1  0
 21 55  1  0
 21 56  1  0
 22 57  1  0
 22 58  1  0
 25 59  1  0
 26 60  1  0
 28 61  1  0
 29 62  1  0
 30 63  1  0
 30 64  1  0
 31 65  1  0
 32 66  1  0
 33 67  1  0
 35 68  1  0
 35 69  1  0
 37 70  1  0
 37 71  1  0
 38 72  1  0
 38 73  1  0
 38 74  1  0
 39 75  1  0
 40 76  1  0
 40 77  1  0
M  END
> <Name>
CHEMBL1917253

> <IC50 nM>
2.2

> <Molecule_ChEMBL_ID>
CHEMBL1917253

> <Smiles>
C[C@]12CCC(=O)C=C1CC[C@@H]1[C@@H]2[C@@H](O)C[C@@]2(C)[C@H]1CC[C@]2(OC(=O)c1ccco1)C(=O)CSc1nc2ccccc2o1

$$$$
CHEMBL5278997
  SciTegic08162514323D

 52 55  0  0  0  0            999 V2000
    6.6620    0.9120    3.4690 Cl  0  0
    5.8070    0.7420    1.9880 C   0  0
    6.2250    1.4140    0.8160 C   0  0
    4.6680   -0.0840    1.9490 C   0  0
    5.5020    1.2480   -0.3790 C   0  0
    7.4220    2.2990    0.8160 C   0  0
    3.9510   -0.2420    0.7500 C   0  0
    4.3650    0.4240   -0.4160 C   0  0
    2.5550   -1.2580    0.7170 S   0  0
    3.6930    0.2750   -1.5410 O   0  0
    2.4770   -1.9670    1.9820 O   0  0
    2.6600   -2.1410   -0.4300 O   0  0
    1.1870   -0.4040    0.5510 N   0  0
    4.1640    0.9590   -2.6940 C   0  0
    0.0060   -1.0350    0.5060 C   0  0
   -1.1970   -0.3010    0.3610 C   0  0
   -0.0530   -2.4450    0.6010 C   0  0
   -2.4690   -0.9510    0.3100 C   0  0
   -1.2950   -3.1110    0.5530 C   0  0
   -3.6330   -0.2360    0.1720 N   0  0
   -2.5000   -2.3810    0.4080 C   0  0
   -3.6410    1.1370    0.0960 C   0  0
   -4.9590   -0.9160    0.0900 C   0  0
   -3.7830   -3.1290    0.3570 C   0  0
   -2.7770    1.7830    0.6410 O   0  0
   -4.6970    1.8090   -0.6490 C   0  0
   -4.9630   -2.2660    0.8180 C   0  0
   -5.1210    3.0220   -0.1950 O   0  0
   -5.3630    1.3810   -1.7970 C   0  0
   -6.0920    3.3690   -1.0920 C   0  0
   -6.2740    2.3990   -2.0860 C   0  0
    4.3340   -0.6030    2.8360 H   0  0
    5.8180    1.7580   -1.2770 H   0  0
    7.6390    2.7600   -0.1470 H   0  0
    8.2970    1.7250    1.1170 H   0  0
    7.2810    3.1000    1.5450 H   0  0
    1.2250    0.5920    0.4840 H   0  0
    4.0920    2.0310   -2.5060 H   0  0
    5.1540    0.5760   -2.9380 H   0  0
    3.5020    0.7210   -3.5260 H   0  0
   -1.1310    0.7770    0.2890 H   0  0
    0.8500   -3.0310    0.7150 H   0  0
   -1.3180   -4.1890    0.6270 H   0  0
   -5.2090   -1.0590   -0.9610 H   0  0
   -5.7350   -0.2750    0.5140 H   0  0
   -3.9490   -3.4590   -0.6700 H   0  0
   -3.7330   -4.0270    0.9750 H   0  0
   -4.9020   -2.1040    1.8960 H   0  0
   -5.9040   -2.7850    0.6390 H   0  0
   -5.2110    0.4610   -2.3460 H   0  0
   -6.6510    4.2950   -1.0290 H   0  0
   -6.9750    2.4320   -2.9080 H   0  0
  1  2  1  0
  2  3  2  0
  2  4  1  0
  3  5  1  0
  3  6  1  0
  4  7  2  0
  5  8  2  0
  7  9  1  0
  8 10  1  0
  9 11  2  0
  9 12  2  0
  9 13  1  0
 10 14  1  0
 13 15  1  0
 15 16  2  0
 15 17  1  0
 16 18  1  0
 17 19  2  0
 18 20  1  0
 18 21  2  0
 20 22  1  0
 20 23  1  0
 21 24  1  0
 22 25  2  0
 22 26  1  0
 23 27  1  0
 26 28  1  0
 26 29  2  0
 28 30  1  0
 29 31  1  0
  7  8  1  0
 19 21  1  0
 24 27  1  0
 30 31  2  0
  4 32  1  0
  5 33  1  0
  6 34  1  0
  6 35  1  0
  6 36  1  0
 13 37  1  0
 14 38  1  0
 14 39  1  0
 14 40  1  0
 16 41  1  0
 17 42  1  0
 19 43  1  0
 23 44  1  0
 23 45  1  0
 24 46  1  0
 24 47  1  0
 27 48  1  0
 27 49  1  0
 29 50  1  0
 30 51  1  0
 31 52  1  0
M  END
> <Name>
CHEMBL5278997

> <IC50 nM>
50000

> <Molecule_ChEMBL_ID>
CHEMBL5278997

> <Smiles>
COc1cc(C)c(Cl)cc1S(=O)(=O)Nc1ccc2c(c1)N(C(=O)c1ccco1)CCC2

$$$$
CHEMBL5269740
  SciTegic08162514323D

 55 58  0  0  0  0            999 V2000
    3.0880   -1.9780   -0.9920 S   0  0
    4.1230   -2.9840   -0.8280 O   0  0
    3.2250   -1.2110   -2.2170 O   0  0
    1.6660   -2.7520   -1.0570 N   0  0
    3.1720   -0.8910    0.3460 C   0  0
    0.5290   -2.0550   -1.1950 C   0  0
    3.9800    0.2580    0.2720 C   0  0
    2.4260   -1.1580    1.5060 C   0  0
   -0.7190   -2.7190   -1.2440 C   0  0
    0.5620   -0.6440   -1.2930 C   0  0
    4.6800    0.5100   -0.8160 O   0  0
    4.0410    1.1370    1.3670 C   0  0
    2.4860   -0.2770    2.6020 C   0  0
   -1.9280   -1.9900   -1.3910 C   0  0
   -0.6330    0.0920   -1.4370 C   0  0
    5.4590    1.6950   -0.8480 C   0  0
    3.2970    0.8730    2.5310 C   0  0
    1.6910   -0.5740    3.8220 C   0  0
   -1.9000   -0.5600   -1.4880 C   0  0
   -3.2090   -2.7400   -1.4410 C   0  0
    3.3730    1.8170    3.6800 C   0  0
   -3.0660    0.1540   -1.6270 N   0  0
   -4.3910   -1.8790   -0.9800 C   0  0
   -3.0760    1.5250   -1.7030 C   0  0
   -4.3910   -0.5290   -1.7070 C   0  0
   -2.1070    2.1210   -2.1130 O   0  0
   -4.3260    2.2600   -1.2600 C   0  0
   -4.6820    2.2990    0.2110 C   0  0
   -4.1930    3.5510   -0.4800 C   0  0
    1.6350   -3.7500   -0.9960 H   0  0
    1.8070   -2.0430    1.5530 H   0  0
   -0.7620   -3.7970   -1.1720 H   0  0
    1.5020   -0.1110   -1.2600 H   0  0
    4.6640    2.0180    1.3110 H   0  0
   -0.5470    1.1680   -1.5080 H   0  0
    4.7850    2.5490   -0.7710 H   0  0
    6.2310    1.6190   -0.0800 H   0  0
    5.9570    1.7520   -1.8160 H   0  0
    1.5230    0.2870    4.4710 H   0  0
    2.1990   -1.3400    4.4100 H   0  0
    0.7170   -0.9710    3.5350 H   0  0
   -3.3730   -3.0720   -2.4670 H   0  0
   -3.1560   -3.6390   -0.8220 H   0  0
    4.0840    2.6330    3.5430 H   0  0
    3.6620    1.2720    4.5780 H   0  0
    2.3930    2.2560    3.8560 H   0  0
   -4.3320   -1.7170    0.0980 H   0  0
   -5.3300   -2.4020   -1.1600 H   0  0
   -4.6410   -0.6740   -2.7580 H   0  0
   -5.1700    0.1070   -1.2830 H   0  0
   -5.1640    2.2010   -1.9550 H   0  0
   -5.7380    2.2460    0.4770 H   0  0
   -4.0080    1.8130    0.9180 H   0  0
   -4.9220    4.3380   -0.6800 H   0  0
   -3.1910    3.9060   -0.2400 H   0  0
  1  2  2  0
  1  3  2  0
  1  4  1  0
  1  5  1  0
  4  6  1  0
  5  7  2  0
  5  8  1  0
  6  9  2  0
  6 10  1  0
  7 11  1  0
  7 12  1  0
  8 13  2  0
  9 14  1  0
 10 15  2  0
 11 16  1  0
 12 17  2  0
 13 18  1  0
 14 19  2  0
 14 20  1  0
 17 21  1  0
 19 22  1  0
 20 23  1  0
 22 24  1  0
 22 25  1  0
 24 26  2  0
 24 27  1  0
 27 28  1  0
 27 29  1  0
 13 17  1  0
 15 19  1  0
 23 25  1  0
 28 29  1  0
  4 30  1  0
  8 31  1  0
  9 32  1  0
 10 33  1  0
 12 34  1  0
 15 35  1  0
 16 36  1  0
 16 37  1  0
 16 38  1  0
 18 39  1  0
 18 40  1  0
 18 41  1  0
 20 42  1  0
 20 43  1  0
 21 44  1  0
 21 45  1  0
 21 46  1  0
 23 47  1  0
 23 48  1  0
 25 49  1  0
 25 50  1  0
 27 51  1  0
 28 52  1  0
 28 53  1  0
 29 54  1  0
 29 55  1  0
M  END
> <Name>
CHEMBL5269740

> <IC50 nM>
7500

> <Molecule_ChEMBL_ID>
CHEMBL5269740

> <Smiles>
COc1cc(C)c(C)cc1S(=O)(=O)Nc1ccc2c(c1)CCCN2C(=O)C1CC1

$$$$
CHEMBL5266323
  SciTegic08162514323D

 55 58  0  0  0  0            999 V2000
    4.9630   -5.4260    3.3890 Cl  0  0
    4.5780   -4.7070    1.8750 C   0  0
    5.4530   -4.8090    0.7720 C   0  0
    3.3650   -4.0060    1.7400 C   0  0
    5.1060   -4.2130   -0.4550 C   0  0
    6.7480   -5.5390    0.8730 C   0  0
    3.0260   -3.4120    0.5140 C   0  0
    3.8950   -3.5140   -0.5880 C   0  0
    1.5350   -2.5530    0.3630 S   0  0
    3.5760   -2.9570   -1.7400 O   0  0
    0.7560   -2.7790    1.5670 O   0  0
    0.8670   -3.0060   -0.8460 O   0  0
    1.7660   -0.9570    0.2230 N   0  0
    4.4870   -3.0960   -2.8200 C   0  0
    0.7130   -0.1370    0.0920 C   0  0
   -0.6030   -0.6540    0.0800 C   0  0
    0.9040    1.2600   -0.0330 C   0  0
   -1.7250    0.2030   -0.0580 C   0  0
   -0.2050    2.1250   -0.1700 C   0  0
   -1.5370    1.6190   -0.1830 C   0  0
   -3.0820   -0.3980   -0.0640 C   0  0
   -2.6150    2.4570   -0.3160 N   0  0
   -4.0980    0.4880   -0.7930 C   0  0
   -2.4690    3.8160   -0.4730 C   0  0
   -4.0120    1.9360   -0.2870 C   0  0
   -1.4670    4.2720   -0.9710 O   0  0
   -3.5700    4.7110   -0.0080 C   0  0
   -4.1600    4.5060    1.2520 C   0  0
   -4.0180    5.7620   -0.8280 C   0  0
   -5.1970    5.3500    1.6900 C   0  0
   -5.0550    6.6040   -0.3920 C   0  0
   -5.6460    6.3990    0.8670 C   0  0
   -6.9140    7.4240    1.4010 Cl  0  0
    2.6840   -3.9180    2.5740 H   0  0
    5.7720   -4.2890   -1.3010 H   0  0
    7.3320   -5.5450   -0.0470 H   0  0
    6.5590   -6.5740    1.1540 H   0  0
    7.3600   -5.0880    1.6540 H   0  0
    2.6940   -0.5820    0.2330 H   0  0
    5.4140   -2.5920   -2.5530 H   0  0
    4.5670   -4.1540   -3.0660 H   0  0
    4.0690   -2.5840   -3.6870 H   0  0
   -0.7670   -1.7190    0.1760 H   0  0
    1.8990    1.6840   -0.0290 H   0  0
    0.0000    3.1820   -0.2620 H   0  0
   -3.0660   -1.3850   -0.5330 H   0  0
   -3.3960   -0.5450    0.9710 H   0  0
   -3.9080    0.4630   -1.8670 H   0  0
   -5.1070    0.1020   -0.6500 H   0  0
   -4.6600    2.5680   -0.8960 H   0  0
   -4.3850    1.9940    0.7360 H   0  0
   -3.8220    3.7010    1.8910 H   0  0
   -3.5700    5.9280   -1.7970 H   0  0
   -5.6410    5.1800    2.6620 H   0  0
   -5.3910    7.4060   -1.0350 H   0  0
  1  2  1  0
  2  3  2  0
  2  4  1  0
  3  5  1  0
  3  6  1  0
  4  7  2  0
  5  8  2  0
  7  9  1  0
  8 10  1  0
  9 11  2  0
  9 12  2  0
  9 13  1  0
 10 14  1  0
 13 15  1  0
 15 16  2  0
 15 17  1  0
 16 18  1  0
 17 19  2  0
 18 20  2  0
 18 21  1  0
 20 22  1  0
 21 23  1  0
 22 24  1  0
 22 25  1  0
 24 26  2  0
 24 27  1  0
 27 28  2  0
 27 29  1  0
 28 30  1  0
 29 31  2  0
 30 32  2  0
 32 33  1  0
  7  8  1  0
 19 20  1  0
 23 25  1  0
 31 32  1  0
  4 34  1  0
  5 35  1  0
  6 36  1  0
  6 37  1  0
  6 38  1  0
 13 39  1  0
 14 40  1  0
 14 41  1  0
 14 42  1  0
 16 43  1  0
 17 44  1  0
 19 45  1  0
 21 46  1  0
 21 47  1  0
 23 48  1  0
 23 49  1  0
 25 50  1  0
 25 51  1  0
 28 52  1  0
 29 53  1  0
 30 54  1  0
 31 55  1  0
M  END
> <Name>
CHEMBL5266323

> <IC50 nM>
2070

> <Molecule_ChEMBL_ID>
CHEMBL5266323

> <Smiles>
COc1cc(C)c(Cl)cc1S(=O)(=O)Nc1ccc2c(c1)CCCN2C(=O)c1ccc(Cl)cc1

$$$$
CHEMBL3358941
  SciTegic08162514323D

 65 68  0  0  1  0            999 V2000
   -4.3650    0.5020   -4.1720 S   0  0
   -5.0700    1.7720   -4.1720 O   0  0
   -4.5760   -0.2700   -2.9610 O   0  0
   -5.0630   -0.4340   -5.4630 N   0  0
   -2.6760    0.8180   -4.3280 C   0  0
   -2.0760    1.8160   -3.5410 C   0  0
   -1.9040    0.0800   -5.2400 C   0  0
   -0.6990    2.0760   -3.6660 C   0  0
   -0.5270    0.3400   -5.3650 C   0  0
    0.0740    1.3380   -4.5800 C   0  0
   -0.0630    3.1310   -2.8360 C   0  0
    1.2970    2.6820   -2.3010 C   0  0
   -0.9980    3.6190   -1.7310 C   0  0
    0.0590    4.1270   -3.9900 C   0  0
    1.1800    1.6250   -1.2010 C   0  0  1  0  0  0
    0.0490    0.8280   -1.4750 O   0  0
    2.4240    0.7420   -1.3090 C   0  0
    1.0080    2.2360    0.1890 C   0  0
    2.2910   -0.3360   -0.4730 F   0  0
    3.5290    1.4690   -0.9470 F   0  0
    2.5640    0.3070   -2.6000 F   0  0
    1.2090    1.2010    1.2730 C   0  0
    2.4180    1.0680    2.0080 N   0  0
    0.2990    0.2290    1.7340 C   0  0
    2.2250    0.0290    2.8980 C   0  0
    0.9510   -0.4450    2.7050 C   0  0
    3.0270   -0.5800    3.8850 C   0  0
    0.4470   -1.5310    3.4770 C   0  0
    2.6020   -1.6310    4.6680 N   0  0
    1.3110   -2.1060    4.4630 C   0  0
    0.8710   -3.1310    5.2150 N   0  0
    1.7750   -4.2290    5.6390 C   0  0
   -0.5410   -3.2190    5.6620 C   0  0
    1.0940   -5.6080    5.5020 C   0  0
   -1.0900   -4.6560    5.5250 C   0  0
   -0.1930   -5.5960    6.1060 O   0  0
   -4.9180    0.0550   -6.3600 H   0  0
   -4.5920   -1.3500   -5.5180 H   0  0
   -2.6760    2.3810   -2.8420 H   0  0
   -2.3650   -0.6880   -5.8460 H   0  0
    0.0660   -0.2270   -6.0670 H   0  0
    1.1310    1.5330   -4.6820 H   0  0
    1.8770    3.5370   -1.9530 H   0  0
    1.9320    2.3240   -3.1110 H   0  0
   -1.8500    4.1720   -2.1330 H   0  0
   -0.4710    4.2770   -1.0410 H   0  0
   -1.3890    2.7790   -1.1560 H   0  0
   -0.9060    4.2720   -4.4770 H   0  0
    0.4220    5.0900   -3.6330 H   0  0
    0.7600    3.7640   -4.7400 H   0  0
    0.0140    0.1390   -0.7950 H   0  0
    0.0180    2.6840    0.2930 H   0  0
    1.7070    3.0590    0.3380 H   0  0
    3.2400    1.6170    1.9020 H   0  0
   -0.7110    0.0630    1.3810 H   0  0
    4.0270   -0.2030    4.0350 H   0  0
   -0.5570   -1.9000    3.3180 H   0  0
    2.7010   -4.2170    5.0590 H   0  0
    2.0570   -4.0550    6.6780 H   0  0
   -1.1740   -2.5290    5.1000 H   0  0
   -0.5860   -2.9020    6.7050 H   0  0
    1.6910   -6.3810    5.9860 H   0  0
    0.9840   -5.8890    4.4530 H   0  0
   -2.0530   -4.7500    6.0270 H   0  0
   -1.2420   -4.9200    4.4790 H   0  0
  1  2  2  0
  1  3  2  0
  1  4  1  0
  1  5  1  0
  5  6  2  0
  5  7  1  0
  6  8  1  0
  7  9  2  0
  8 10  2  0
  8 11  1  0
 11 12  1  0
 11 13  1  0
 11 14  1  0
 12 15  1  0
 15 16  1  0
 15 17  1  0
 15 18  1  0
 17 19  1  0
 17 20  1  0
 17 21  1  0
 18 22  1  0
 22 23  1  0
 22 24  2  0
 23 25  1  0
 24 26  1  0
 25 27  1  0
 26 28  1  0
 27 29  2  0
 28 30  2  0
 30 31  1  0
 31 32  1  0
 31 33  1  0
 32 34  1  0
 33 35  1  0
 34 36  1  0
  9 10  1  0
 25 26  2  0
 29 30  1  0
 35 36  1  0
  4 37  1  0
  4 38  1  0
  6 39  1  0
  7 40  1  0
  9 41  1  0
 10 42  1  0
 12 43  1  0
 12 44  1  0
 13 45  1  0
 13 46  1  0
 13 47  1  0
 14 48  1  0
 14 49  1  0
 14 50  1  0
 16 51  1  0
 18 52  1  0
 18 53  1  0
 23 54  1  0
 24 55  1  0
 27 56  1  0
 28 57  1  0
 32 58  1  0
 32 59  1  0
 33 60  1  0
 33 61  1  0
 34 62  1  0
 34 63  1  0
 35 64  1  0
 35 65  1  0
M  END
> <Name>
CHEMBL3358941

> <IC50 nM>
170

> <Molecule_ChEMBL_ID>
CHEMBL3358941

> <Smiles>
CC(C)(CC(O)(Cc1cc2cc(N3CCOCC3)ncc2[nH]1)C(F)(F)F)c1cccc(S(N)(=O)=O)c1

$$$$
CHEMBL3261399
  SciTegic08162514323D

 46 48  0  0  1  0            999 V2000
   -2.5260   -2.5390   -0.2720 S   0  0
   -3.9400   -2.8160   -0.0800 O   0  0
   -1.9900   -3.1170   -1.4920 O   0  0
   -2.3990   -0.8140   -0.4630 N   0  0
   -1.6560   -3.1930    1.0680 C   0  0
   -1.0680   -0.2380   -0.5780 C   0  0  2  0  0  0
   -0.6520   -4.1560    0.8530 C   0  0
   -1.9570   -2.7600    2.3690 C   0  0
   -1.1490    1.2890   -0.5980 C   0  0
   -0.3440   -0.8070   -1.7990 C   0  0
   -0.3690   -4.5660   -0.3650 O   0  0
    0.0490   -4.6840    1.9530 C   0  0
   -1.2540   -3.2890    3.4650 C   0  0
    0.1640    1.8300   -0.6210 O   0  0
    0.7420   -5.4320   -0.5370 C   0  0
   -0.2500   -4.2500    3.2580 C   0  0
    0.2950    3.1660   -0.6350 C   0  0
    1.5760    3.7810   -0.6490 C   0  0
   -0.8670    3.9710   -0.6350 C   0  0
    1.6890    5.2110   -0.6620 C   0  0
    2.7620    2.9920   -0.6500 C   0  0
   -0.7600    5.3790   -0.6490 C   0  0
    2.9340    5.8150   -0.6760 N   0  0
    0.5120    5.9980   -0.6620 C   0  0
    4.0230    3.6350   -0.6640 C   0  0
    4.0820    5.0490   -0.6760 C   0  0
   -2.8870   -0.3460    0.3120 H   0  0
   -0.6060   -0.5880    0.3440 H   0  0
   -2.7290   -2.0190    2.5310 H   0  0
   -1.6540    1.6600    0.2930 H   0  0
   -1.6760    1.6370   -1.4860 H   0  0
   -0.0820   -1.8550   -1.6620 H   0  0
    0.5780   -0.2580   -1.9880 H   0  0
   -0.9670   -0.7300   -2.6900 H   0  0
    0.8200   -5.4220    1.7970 H   0  0
   -1.4830   -2.9550    4.4670 H   0  0
    0.8400   -5.6560   -1.6000 H   0  0
    1.6090   -4.9750   -0.0610 H   0  0
    0.5310   -6.3670   -0.0180 H   0  0
    0.2910   -4.6580    4.0980 H   0  0
   -1.8440    3.5080   -0.6250 H   0  0
    2.7190    1.9140   -0.6410 H   0  0
   -1.6520    5.9880   -0.6500 H   0  0
    0.5680    7.0760   -0.6740 H   0  0
    4.9320    3.0510   -0.6640 H   0  0
    5.0450    5.5390   -0.6860 H   0  0
  1  2  2  0
  1  3  2  0
  1  4  1  0
  1  5  1  0
  4  6  1  0
  5  7  2  0
  5  8  1  0
  6  9  1  0
  6 10  1  0
  7 11  1  0
  7 12  1  0
  8 13  2  0
  9 14  1  0
 11 15  1  0
 12 16  2  0
 14 17  1  0
 17 18  2  0
 17 19  1  0
 18 20  1  0
 18 21  1  0
 19 22  2  0
 20 23  1  0
 20 24  2  0
 21 25  2  0
 23 26  2  0
 13 16  1  0
 22 24  1  0
 25 26  1  0
  4 27  1  0
  6 28  1  0
  8 29  1  0
  9 30  1  0
  9 31  1  0
 10 32  1  0
 10 33  1  0
 10 34  1  0
 12 35  1  0
 13 36  1  0
 15 37  1  0
 15 38  1  0
 15 39  1  0
 16 40  1  0
 19 41  1  0
 21 42  1  0
 22 43  1  0
 24 44  1  0
 25 45  1  0
 26 46  1  0
M  END
> <Name>
CHEMBL3261399

> <IC50 nM>
10000

> <Molecule_ChEMBL_ID>
CHEMBL3261399

> <Smiles>
COc1ccccc1S(=O)(=O)N[C@@H](C)COc1cccc2ncccc12

$$$$
CHEMBL1097751
  SciTegic08162514323D

 45 46  0  0  1  0            999 V2000
   -0.6170    2.6760    1.9960 Cl  0  0
    0.9860    2.1450    1.6800 C   0  0
    1.2770    0.7810    1.4490 C   0  0
    2.0270    3.0940    1.6500 C   0  0
    2.6020    0.3830    1.1930 C   0  0
    0.2010   -0.2600    1.4730 C   0  0  2  0  0  0
    3.3480    2.6890    1.3930 C   0  0
    3.6350    1.3320    1.1620 C   0  0
    0.5880   -1.4200    2.3890 C   0  0
   -0.1290   -0.7170    0.0590 C   0  0
    4.3280    3.5900    1.3650 F   0  0
    0.8630   -1.1500    3.7830 C   0  0
    0.6760   -2.6800    1.8970 C   0  0
    0.0000   -2.0160   -0.3050 C   0  0
   -0.5900    0.2970   -0.9040 C   0  0
    1.0820   -0.9320    4.9020 N   0  0
    0.3950   -2.9840    0.5820 N   0  0
    1.0860   -3.8360    2.7870 C   0  0
   -0.3030   -2.4340   -1.7280 C   0  0
    0.1190    1.2290   -1.2010 O   0  0
   -1.8090    0.1050   -1.4020 O   0  0
   -2.2190    1.1700   -2.2480 C   0  0
   -3.6170    0.6620   -2.6050 C   0  0
   -1.2930    1.2440   -3.4610 C   0  0
   -2.2520    2.4730   -1.4490 C   0  0
    1.8200    4.1410    1.8240 H   0  0
    2.8300   -0.6580    1.0160 H   0  0
   -0.7070    0.2010    1.8870 H   0  0
    4.6490    1.0180    0.9650 H   0  0
    0.4750   -3.9320    0.2640 H   0  0
    0.5270   -3.7990    3.7230 H   0  0
    0.9300   -4.7790    2.2660 H   0  0
    2.1450   -3.7600    3.0290 H   0  0
    0.0470   -1.7210   -2.4750 H   0  0
   -1.3790   -2.5530   -1.8590 H   0  0
    0.1660   -3.3950   -1.9390 H   0  0
   -4.2320    0.5100   -1.7190 H   0  0
   -3.5590   -0.2870   -3.1370 H   0  0
   -4.1330    1.3730   -3.2500 H   0  0
   -0.4570    1.9240   -3.2930 H   0  0
   -1.8340    1.5960   -4.3400 H   0  0
   -0.8810    0.2620   -3.6930 H   0  0
   -1.2930    2.9920   -1.4800 H   0  0
   -2.4900    2.2770   -0.4020 H   0  0
   -3.0100    3.1480   -1.8420 H   0  0
  1  2  1  0
  2  3  2  0
  2  4  1  0
  3  5  1  0
  6  3  1  0
  4  7  2  0
  5  8  2  0
  6  9  1  0
  6 10  1  0
  7 11  1  0
  9 12  1  0
  9 13  2  0
 10 14  2  0
 10 15  1  0
 12 16  3  0
 13 17  1  0
 13 18  1  0
 14 19  1  0
 15 20  2  0
 15 21  1  0
 21 22  1  0
 22 23  1  0
 22 24  1  0
 22 25  1  0
  7  8  1  0
 14 17  1  0
  4 26  1  0
  5 27  1  0
  6 28  1  0
  8 29  1  0
 17 30  1  0
 18 31  1  0
 18 32  1  0
 18 33  1  0
 19 34  1  0
 19 35  1  0
 19 36  1  0
 23 37  1  0
 23 38  1  0
 23 39  1  0
 24 40  1  0
 24 41  1  0
 24 42  1  0
 25 43  1  0
 25 44  1  0
 25 45  1  0
M  END
> <Name>
CHEMBL1097751

> <IC50 nM>
1370

> <Molecule_ChEMBL_ID>
CHEMBL1097751

> <Smiles>
CC1=C(C#N)[C@@H](c2ccc(F)cc2Cl)C(C(=O)OC(C)(C)C)=C(C)N1

$$$$
CHEMBL1099083
  SciTegic08162514323D

 52 53  0  0  1  0            999 V2000
   -1.2250   -4.7680   -0.8500 O   0  0
   -0.0160   -4.7850   -0.8500 N   0  3
    0.6910   -5.7910   -0.8500 O   0  5
    0.6370   -3.5530   -0.8500 C   0  0
   -0.1170   -2.3670   -0.8500 C   0  0
    2.0410   -3.5100   -0.8500 C   0  0
    0.5430   -1.1250   -0.8500 C   0  0
    2.6970   -2.2680   -0.8500 C   0  0
    1.9490   -1.0760   -0.8500 C   0  0
   -0.2480    0.1410   -0.8500 C   0  0  1  0  0  0
    0.0160    0.9430    0.4180 C   0  0
    0.0160    0.9410   -2.1170 C   0  0
    0.5470    2.1880    0.3500 C   0  0
   -0.3240    0.3260    1.7150 C   0  0
    0.5450    2.1860   -2.0510 C   0  0
   -0.3260    0.3240   -3.4140 C   0  0
    0.8180    2.7990   -0.8520 N   0  0
    0.8520    2.9490    1.6190 C   0  0
    0.1520   -0.7380    2.0290 O   0  0
   -1.1700    1.0140    2.4790 O   0  0
    0.8480    2.9470   -3.3200 C   0  0
   -1.4450   -0.0840   -3.6210 O   0  0
    0.6620    0.2560   -4.3010 O   0  0
   -1.5350    0.3070    3.6540 C   0  0
    0.2580   -0.3540   -5.5180 C   0  0
   -2.4980    1.3300    4.2540 C   0  0
   -0.2950    0.0840    4.5200 C   0  0
   -2.2290   -1.0000    3.2680 C   0  0
   -1.1950   -2.4120   -0.8500 H   0  0
    2.6130   -4.4260   -0.8500 H   0  0
    3.7750   -2.2270   -0.8500 H   0  0
    2.4610   -0.1230   -0.8500 H   0  0
   -1.3010   -0.1450   -0.8500 H   0  0
    1.2130    3.7190   -0.8520 H   0  0
    1.5270    3.7890    1.4690 H   0  0
    1.3050    2.2810    2.3520 H   0  0
   -0.0720    3.3360    2.0490 H   0  0
    0.0800    2.8400   -4.0860 H   0  0
    1.7910    2.6000   -3.7440 H   0  0
    0.9530    4.0100   -3.1000 H   0  0
    1.0920   -0.3070   -6.2170 H   0  0
   -0.1230   -1.3500   -5.2890 H   0  0
   -0.5630    0.2290   -5.9360 H   0  0
   -3.3360    1.5390    3.5900 H   0  0
   -1.9860    2.2720    4.4530 H   0  0
   -2.9060    0.9690    5.1990 H   0  0
    0.2280   -0.8340    4.2520 H   0  0
   -0.5680    0.0140    5.5720 H   0  0
    0.4040    0.9100    4.4120 H   0  0
   -1.5120   -1.7970    3.0650 H   0  0
   -2.8360   -0.8630    2.3710 H   0  0
   -2.8850   -1.3400    4.0680 H   0  0
  1  2  2  0
  2  3  1  0
  2  4  1  0
  4  5  2  0
  4  6  1  0
  5  7  1  0
  6  8  2  0
  7  9  2  0
 10  7  1  0
 10 11  1  0
 10 12  1  0
 11 13  2  0
 11 14  1  0
 12 15  2  0
 12 16  1  0
 13 17  1  0
 13 18  1  0
 14 19  2  0
 14 20  1  0
 15 21  1  0
 16 22  2  0
 16 23  1  0
 20 24  1  0
 23 25  1  0
 24 26  1  0
 24 27  1  0
 24 28  1  0
  8  9  1  0
 15 17  1  0
  5 29  1  0
  6 30  1  0
  8 31  1  0
  9 32  1  0
 10 33  1  0
 17 34  1  0
 18 35  1  0
 18 36  1  0
 18 37  1  0
 21 38  1  0
 21 39  1  0
 21 40  1  0
 25 41  1  0
 25 42  1  0
 25 43  1  0
 26 44  1  0
 26 45  1  0
 26 46  1  0
 27 47  1  0
 27 48  1  0
 27 49  1  0
 28 50  1  0
 28 51  1  0
 28 52  1  0
M  CHG  2   2   1   3  -1
M  END
> <Name>
CHEMBL1099083

> <IC50 nM>
3260

> <Molecule_ChEMBL_ID>
CHEMBL1099083

> <Smiles>
COC(=O)C1=C(C)NC(C)=C(C(=O)OC(C)(C)C)[C@@H]1c1cccc([N+](=O)[O-])c1

$$$$
CHEMBL1094207
  SciTegic08162514323D

 42 45  0  0  1  0            999 V2000
   -1.2010   -0.7910    2.6310 Cl  0  0
   -1.7170   -2.3050    2.0000 C   0  0
   -2.3400   -2.3980    0.7340 C   0  0
   -1.5120   -3.4690    2.7640 C   0  0
   -2.7500   -3.6520    0.2480 C   0  0
   -2.5740   -1.1910   -0.1080 C   0  0  1  0  0  0
   -1.9260   -4.7190    2.2730 C   0  0
   -2.5450   -4.8110    1.0160 C   0  0
   -3.5680   -0.3910    0.4900 O   0  0
   -1.3260   -0.4220   -0.2190 C   0  0
   -3.1330   -1.5630   -1.4810 C   0  0
   -0.0760   -1.0980   -0.2480 C   0  0
   -1.3730    0.9980   -0.2970 C   0  0
   -3.2320   -0.4340   -2.2540 F   0  0
   -4.3730   -2.1270   -1.3340 F   0  0
   -2.2910   -2.4590   -2.0880 F   0  0
    1.1190   -0.3420   -0.3560 C   0  0
   -0.1760    1.7460   -0.4040 C   0  0
    1.0470    1.0350   -0.4300 C   0  0
    2.3730   -0.9320   -0.3910 C   0  0
    2.3540    1.3890   -0.5200 N   0  0
    3.1040    0.2340   -0.4960 N   0  0
    2.8520    2.6500   -0.6170 C   0  0
    2.2970    3.6900    0.1540 C   0  0
    3.9240    2.9220   -1.4900 C   0  0
    2.8150    4.9940    0.0530 C   0  0
    4.4380    4.2250   -1.5900 C   0  0
    3.8830    5.2620   -0.8190 C   0  0
    4.3710    6.4960   -0.9140 F   0  0
   -1.0350   -3.4160    3.7320 H   0  0
   -3.2270   -3.7320   -0.7190 H   0  0
   -1.7680   -5.6090    2.8630 H   0  0
   -2.8630   -5.7720    0.6400 H   0  0
   -3.2110   -0.0680    1.3320 H   0  0
   -0.0450   -2.1780   -0.1900 H   0  0
   -2.3220    1.5120   -0.2760 H   0  0
   -0.1990    2.8240   -0.4630 H   0  0
    2.7230   -1.9550   -0.3540 H   0  0
    1.4750    3.5040    0.8300 H   0  0
    4.3630    2.1370   -2.0900 H   0  0
    2.3850    5.7870    0.6460 H   0  0
    5.2600    4.4280   -2.2600 H   0  0
  1  2  1  0
  2  3  2  0
  2  4  1  0
  3  5  1  0
  3  6  1  0
  4  7  2  0
  5  8  2  0
  6  9  1  0
  6 10  1  0
  6 11  1  0
 10 12  2  0
 10 13  1  0
 11 14  1  0
 11 15  1  0
 11 16  1  0
 12 17  1  0
 13 18  2  0
 17 19  2  0
 17 20  1  0
 19 21  1  0
 20 22  2  0
 21 23  1  0
 23 24  2  0
 23 25  1  0
 24 26  1  0
 25 27  2  0
 26 28  2  0
 28 29  1  0
  7  8  1  0
 18 19  1  0
 21 22  1  0
 27 28  1  0
  4 30  1  0
  5 31  1  0
  7 32  1  0
  8 33  1  0
  9 34  1  0
 12 35  1  0
 13 36  1  0
 18 37  1  0
 20 38  1  0
 24 39  1  0
 25 40  1  0
 26 41  1  0
 27 42  1  0
M  END
> <Name>
CHEMBL1094207

> <IC50 nM>
35

> <Molecule_ChEMBL_ID>
CHEMBL1094207

> <Smiles>
OC(c1ccc2c(cnn2-c2ccc(F)cc2)c1)(c1ccccc1Cl)C(F)(F)F

$$$$
CHEMBL3605932
  SciTegic08162514323D

 34 36  0  0  0  0            999 V2000
    0.8320   -5.6000    2.3420 Cl  0  0
    1.5450   -4.5570    1.1820 C   0  0
    1.1370   -3.2130    1.0960 C   0  0
    2.5410   -5.0430    0.3140 C   0  0
    1.7210   -2.3570    0.1450 C   0  0
    3.1210   -4.1900   -0.6390 C   0  0
    1.2890   -0.9390    0.0550 C   0  0
    2.7130   -2.8480   -0.7250 C   0  0
    0.0310   -0.4280    0.0160 C   0  0
    2.1230    0.1970   -0.0120 C   0  0
   -0.0040    0.9450   -0.0680 C   0  0
   -1.1700   -1.1880    0.0570 C   0  0
    1.3220    1.3590   -0.0860 N   0  0
   -1.2480    1.6330   -0.1170 C   0  0
   -2.4160   -0.5120    0.0100 C   0  0
   -1.1470    2.9710   -0.1990 N   0  0
   -2.4610    0.9040   -0.0760 C   0  0
   -2.4850    3.8830   -0.2620 S   0  0
   -3.2170    3.5000   -1.4570 O   0  0
   -3.2290    3.6500    0.9630 O   0  0
   -2.0720    5.6190   -0.3670 C   0  0
    0.3730   -2.8400    1.7660 H   0  0
    2.8650   -6.0720    0.3690 H   0  0
    3.8850   -4.5650   -1.3050 H   0  0
    3.1700   -2.2030   -1.4630 H   0  0
    3.2050    0.2210   -0.0080 H   0  0
   -1.1490   -2.2660    0.1230 H   0  0
    1.6520    2.2950   -0.1430 H   0  0
   -3.3360   -1.0780    0.0410 H   0  0
   -0.2460    3.4040   -0.2210 H   0  0
   -3.4160    1.4100   -0.1110 H   0  0
   -2.9790    6.1970   -0.5430 H   0  0
   -1.5450    5.9240    0.5370 H   0  0
   -1.4040    5.7830   -1.2130 H   0  0
  1  2  1  0
  2  3  2  0
  2  4  1  0
  3  5  1  0
  4  6  2  0
  5  7  1  0
  5  8  2  0
  7  9  1  0
  7 10  2  0
  9 11  1  0
  9 12  2  0
 10 13  1  0
 11 14  2  0
 12 15  1  0
 14 16  1  0
 14 17  1  0
 16 18  1  0
 18 19  2  0
 18 20  2  0
 18 21  1  0
  6  8  1  0
 11 13  1  0
 15 17  2  0
  3 22  1  0
  4 23  1  0
  6 24  1  0
  8 25  1  0
 10 26  1  0
 12 27  1  0
 13 28  1  0
 15 29  1  0
 16 30  1  0
 17 31  1  0
 21 32  1  0
 21 33  1  0
 21 34  1  0
M  END
> <Name>
CHEMBL3605932

> <IC50 nM>
180

> <Molecule_ChEMBL_ID>
CHEMBL3605932

> <Smiles>
CS(=O)(=O)Nc1cccc2c(-c3cccc(Cl)c3)c[nH]c12

$$$$
CHEMBL3578286
  SciTegic08162514323D

 61 66  0  0  1  0            999 V2000
    8.4240    2.2290    2.4630 F   0  0
    7.1680    1.7850    2.4690 C   0  0
    6.8180    0.6560    1.7050 C   0  0
    6.1910    2.4430    3.2360 C   0  0
    5.4920    0.1870    1.7110 C   0  0
    4.8670    1.9750    3.2420 C   0  0
    4.5160    0.8460    2.4800 C   0  0
    3.1150    0.3500    2.4860 C   0  0  2  0  0  0
    2.4000    0.7440    1.2750 N   0  0
    2.3750    0.7680    3.7580 C   0  0
    2.3400    2.0230    0.7360 C   0  0
    1.6560   -0.0980    0.4550 C   0  0
    2.9040    2.9590    1.2520 O   0  0
    1.6070    2.0840   -0.3790 O   0  0
    1.4960   -1.2830    0.6350 O   0  0
    1.1150    0.7660   -0.6680 C   0  0  2  0  0  0
   -0.4000    0.7950   -0.6880 C   0  0
    1.6540    0.3240   -2.0240 C   0  0
   -1.1860   -0.3380   -0.6060 N   0  0
   -1.1450    1.9550   -0.7910 N   0  0
    1.4240   -1.1250   -2.2580 C   0  0
   -2.4410    0.1410   -0.6580 C   0  0
   -2.4180    1.5200   -0.7680 C   0  0
    0.2110   -1.5650   -2.8170 C   0  0
    2.4200   -2.0590   -1.9200 C   0  0
   -3.6660   -0.5660   -0.6150 C   0  0
   -3.6190    2.2640   -0.8400 C   0  0
   -0.0060   -2.9360   -3.0390 C   0  0
    2.2030   -3.4300   -2.1430 C   0  0
   -4.8870    0.1560   -0.6860 C   0  0
   -4.8560    1.5740   -0.7970 C   0  0
    0.9900   -3.8670   -2.7010 C   0  0
   -6.1600   -0.5490   -0.6430 C   0  0
   -6.3180   -1.6880    0.1780 C   0  0
   -7.2460   -0.1040   -1.4200 C   0  0
   -7.5040   -2.3630    0.2320 N   0  0
   -8.4590   -0.8090   -1.3560 C   0  0
   -8.5610   -1.9380   -0.5180 C   0  0
    7.5650    0.1460    1.1130 H   0  0
    6.4570    3.3110    3.8240 H   0  0
    5.2310   -0.6800    1.1230 H   0  0
    4.1230    2.4840    3.8340 H   0  0
    3.2830   -0.7270    2.4750 H   0  0
    1.4980    0.1430    3.9160 H   0  0
    3.0290    0.6890    4.6270 H   0  0
    2.0390    1.8030    3.6860 H   0  0
    2.7190    0.5410   -2.1040 H   0  0
    1.1930    0.9000   -2.8260 H   0  0
   -0.8140    2.8890   -0.8630 H   0  0
   -0.5590   -0.8520   -3.0780 H   0  0
    3.3550   -1.7290   -1.4900 H   0  0
   -3.6620   -1.6450   -0.5290 H   0  0
   -3.5980    3.3420   -0.9260 H   0  0
   -0.9380   -3.2720   -3.4670 H   0  0
    2.9690   -4.1470   -1.8830 H   0  0
   -5.7760    2.1410   -0.8520 H   0  0
    0.8240   -4.9220   -2.8710 H   0  0
   -5.4940   -2.0410    0.7810 H   0  0
   -7.1600    0.7640   -2.0610 H   0  0
   -9.3070   -0.4880   -1.9410 H   0  0
   -9.4940   -2.4790   -0.4690 H   0  0
  1  2  1  0
  2  3  2  0
  2  4  1  0
  3  5  1  0
  4  6  2  0
  5  7  2  0
  7  8  1  0
  8  9  1  0
  8 10  1  0
  9 11  1  0
  9 12  1  0
 11 13  2  0
 11 14  1  0
 12 15  2  0
 12 16  1  0
 16 17  1  0
 16 18  1  0
 17 19  2  0
 17 20  1  0
 18 21  1  0
 19 22  1  0
 20 23  1  0
 21 24  2  0
 21 25  1  0
 22 26  1  0
 23 27  1  0
 24 28  1  0
 25 29  2  0
 26 30  2  0
 27 31  2  0
 28 32  2  0
 30 33  1  0
 33 34  2  0
 33 35  1  0
 34 36  1  0
 35 37  2  0
 36 38  2  0
  6  7  1  0
 14 16  1  0
 22 23  2  0
 29 32  1  0
 30 31  1  0
 37 38  1  0
  3 39  1  0
  4 40  1  0
  5 41  1  0
  6 42  1  0
  8 43  1  0
 10 44  1  0
 10 45  1  0
 10 46  1  0
 18 47  1  0
 18 48  1  0
 20 49  1  0
 24 50  1  0
 25 51  1  0
 26 52  1  0
 27 53  1  0
 28 54  1  0
 29 55  1  0
 31 56  1  0
 32 57  1  0
 34 58  1  0
 35 59  1  0
 37 60  1  0
 38 61  1  0
M  END
> <Name>
CHEMBL3578286

> <IC50 nM>
3100

> <Molecule_ChEMBL_ID>
CHEMBL3578286

> <Smiles>
C[C@H](c1ccc(F)cc1)N1C(=O)O[C@](Cc2ccccc2)(c2nc3cc(-c4cccnc4)ccc3[nH]2)C1=O

$$$$
CHEMBL3358926
  SciTegic08162514323D

 52 54  0  0  1  0            999 V2000
   -3.8790   -2.1150   -4.5880 F   0  0
   -2.7760   -1.9060   -3.8750 C   0  0
   -2.7440   -0.8890   -2.9060 C   0  0
   -1.6410   -2.7070   -4.0900 C   0  0
   -1.5780   -0.6680   -2.1500 C   0  0
   -0.4750   -2.4880   -3.3360 C   0  0
   -0.4400   -1.4710   -2.3670 C   0  0
   -1.5630    0.4140   -1.1310 C   0  0
    0.8030   -1.2540   -1.5780 C   0  0
   -1.3560   -0.5410    0.0450 C   0  0
   -2.9020    1.1470   -1.0660 C   0  0
   -0.3810    1.3630   -1.3340 C   0  0
   -1.8630    0.0310    1.3670 C   0  0  1  0  0  0
   -3.2560    0.2190    1.2620 O   0  0
   -1.6040   -1.0330    2.4340 C   0  0
   -1.2250    1.3770    1.7130 C   0  0
   -2.7930   -1.4120    3.0000 F   0  0
   -0.7770   -0.5210    3.4000 F   0  0
   -1.0080   -2.1230    1.8530 F   0  0
    0.2850    1.2680    1.7770 C   0  0
    1.1430    2.3950    1.8530 N   0  0
    1.0760    0.1020    1.7750 C   0  0
    2.4360    1.9030    1.8980 C   0  0
    2.3530    0.5330    1.8480 C   0  0
    3.7110    2.4960    1.9780 C   0  0
    3.5270   -0.2730    1.8750 C   0  0
    4.8850    1.7760    2.0100 N   0  0
    4.7930    0.3870    1.9590 C   0  0
    5.9320   -0.3180    1.9880 N   0  0
   -3.6170   -0.2750   -2.7440 H   0  0
   -1.6600   -3.4920   -4.8320 H   0  0
    0.3940   -3.1070   -3.5060 H   0  0
    1.6720   -1.4350   -2.2110 H   0  0
    0.7950   -0.2480   -1.1540 H   0  0
    0.8380   -1.9630   -0.7520 H   0  0
   -0.3070   -0.8300    0.1270 H   0  0
   -1.8170   -1.5080   -0.1580 H   0  0
   -3.1170    1.6840   -1.9900 H   0  0
   -2.9080    1.8710   -0.2520 H   0  0
   -3.7190    0.4450   -0.8930 H   0  0
   -0.7050    2.3990   -1.4470 H   0  0
    0.1820    1.0920   -2.2270 H   0  0
    0.3010    1.3190   -0.4840 H   0  0
   -3.4860    0.9810    1.8180 H   0  0
   -1.6020    1.7520    2.6640 H   0  0
   -1.5020    2.1350    0.9780 H   0  0
    0.8710    3.3500    1.8710 H   0  0
    0.7280   -0.9220    1.7270 H   0  0
    3.7730    3.5740    2.0180 H   0  0
    3.4550   -1.3510    1.8340 H   0  0
    5.9380   -1.3160    1.9550 H   0  0
    6.8110    0.1540    2.0470 H   0  0
  1  2  1  0
  2  3  2  0
  2  4  1  0
  3  5  1  0
  4  6  2  0
  5  7  2  0
  5  8  1  0
  7  9  1  0
  8 10  1  0
  8 11  1  0
  8 12  1  0
 10 13  1  0
 13 14  1  0
 13 15  1  0
 13 16  1  0
 15 17  1  0
 15 18  1  0
 15 19  1  0
 16 20  1  0
 20 21  1  0
 20 22  2  0
 21 23  1  0
 22 24  1  0
 23 25  1  0
 24 26  1  0
 25 27  2  0
 26 28  2  0
 28 29  1  0
  6  7  1  0
 23 24  2  0
 27 28  1  0
  3 30  1  0
  4 31  1  0
  6 32  1  0
  9 33  1  0
  9 34  1  0
  9 35  1  0
 10 36  1  0
 10 37  1  0
 11 38  1  0
 11 39  1  0
 11 40  1  0
 12 41  1  0
 12 42  1  0
 12 43  1  0
 14 44  1  0
 16 45  1  0
 16 46  1  0
 21 47  1  0
 22 48  1  0
 25 49  1  0
 26 50  1  0
 29 51  1  0
 29 52  1  0
M  END
> <Name>
CHEMBL3358926

> <IC50 nM>
37

> <Molecule_ChEMBL_ID>
CHEMBL3358926

> <Smiles>
Cc1ccc(F)cc1C(C)(C)CC(O)(Cc1cc2cc(N)ncc2[nH]1)C(F)(F)F

$$$$
CHEMBL3358934
  SciTegic08162514323D

 60 63  0  0  1  0            999 V2000
    0.5290    4.2340    5.3240 F   0  0
    0.7790    3.9100    4.0570 C   0  0
    0.4960    4.8240    3.0290 C   0  0
    1.3300    2.6540    3.7480 C   0  0
    0.7600    4.4840    1.6910 C   0  0
    1.5940    2.3130    2.4100 C   0  0
    1.3090    3.2270    1.3810 C   0  0
    1.5880    2.8650   -0.0330 C   0  0
    2.4300    1.5920   -0.1350 C   0  0
    2.1970    4.0370   -0.8050 C   0  0
    0.1170    2.6310   -0.3830 C   0  0
    2.9000    1.3090   -1.5610 C   0  0  1  0  0  0
    3.7720    2.3460   -1.9530 O   0  0
    3.7030    0.0080   -1.5040 C   0  0
    1.7480    1.2460   -2.5630 C   0  0
    3.6950   -0.4790   -0.2210 F   0  0
    4.9960    0.2520   -1.8910 F   0  0
    3.1410   -0.9140   -2.3460 F   0  0
    0.6450    0.3320   -2.0740 C   0  0
   -0.7010    0.4380   -2.5080 N   0  0
    0.7360   -0.7300   -1.1520 C   0  0
   -1.4060   -0.5570   -1.8520 C   0  0
   -0.5160   -1.2290   -1.0530 C   0  0
   -2.7520   -0.9690   -1.8540 C   0  0
   -0.9380   -2.3180   -0.2400 C   0  0
   -3.2290   -2.0160   -1.0940 N   0  0
   -2.3180   -2.6910   -0.2850 C   0  0
   -2.7580   -3.7150    0.4650 N   0  0
   -1.8540   -4.8130    0.8890 C   0  0
   -4.1700   -3.8030    0.9140 C   0  0
   -2.5350   -6.1930    0.7540 C   0  0
   -4.7190   -5.2400    0.7770 C   0  0
   -3.8220   -6.1800    1.3570 O   0  0
    0.0720    5.7910    3.2620 H   0  0
    1.5510    1.9470    4.5350 H   0  0
    0.5370    5.1910    0.9040 H   0  0
    2.0160    1.3460    2.1780 H   0  0
    1.8850    0.7380    0.2680 H   0  0
    3.2750    1.6350    0.5510 H   0  0
    1.7030    4.9810   -0.5680 H   0  0
    2.1130    3.8770   -1.8790 H   0  0
    3.2560    4.1470   -0.5660 H   0  0
   -0.5120    3.3980    0.0680 H   0  0
   -0.0270    2.6410   -1.4630 H   0  0
   -0.2170    1.6620   -0.0100 H   0  0
    3.9390    2.2360   -2.9000 H   0  0
    2.1020    0.9020   -3.5350 H   0  0
    1.3420    2.2400   -2.7440 H   0  0
   -1.0680    1.0940   -3.1580 H   0  0
    1.6230   -1.0700   -0.6350 H   0  0
   -3.4510   -0.4390   -2.4840 H   0  0
   -0.2310   -2.8440    0.3890 H   0  0
   -0.9280   -4.8030    0.3110 H   0  0
   -1.5720   -4.6410    1.9300 H   0  0
   -4.8030   -3.1150    0.3500 H   0  0
   -4.2170   -3.4880    1.9570 H   0  0
   -1.9380   -6.9670    1.2360 H   0  0
   -2.6450   -6.4750   -0.2950 H   0  0
   -5.6820   -5.3340    1.2790 H   0  0
   -4.8710   -5.5060   -0.2710 H   0  0
  1  2  1  0
  2  3  2  0
  2  4  1  0
  3  5  1  0
  4  6  2  0
  5  7  2  0
  7  8  1  0
  8  9  1  0
  8 10  1  0
  8 11  1  0
  9 12  1  0
 12 13  1  0
 12 14  1  0
 12 15  1  0
 14 16  1  0
 14 17  1  0
 14 18  1  0
 15 19  1  0
 19 20  1  0
 19 21  2  0
 20 22  1  0
 21 23  1  0
 22 24  1  0
 23 25  1  0
 24 26  2  0
 25 27  2  0
 27 28  1  0
 28 29  1  0
 28 30  1  0
 29 31  1  0
 30 32  1  0
 31 33  1  0
  6  7  1  0
 22 23  2  0
 26 27  1  0
 32 33  1  0
  3 34  1  0
  4 35  1  0
  5 36  1  0
  6 37  1  0
  9 38  1  0
  9 39  1  0
 10 40  1  0
 10 41  1  0
 10 42  1  0
 11 43  1  0
 11 44  1  0
 11 45  1  0
 13 46  1  0
 15 47  1  0
 15 48  1  0
 20 49  1  0
 21 50  1  0
 24 51  1  0
 25 52  1  0
 29 53  1  0
 29 54  1  0
 30 55  1  0
 30 56  1  0
 31 57  1  0
 31 58  1  0
 32 59  1  0
 32 60  1  0
M  END
> <Name>
CHEMBL3358934

> <IC50 nM>
14

> <Molecule_ChEMBL_ID>
CHEMBL3358934

> <Smiles>
CC(C)(CC(O)(Cc1cc2cc(N3CCOCC3)ncc2[nH]1)C(F)(F)F)c1ccc(F)cc1

$$$$
CHEMBL3261169
  SciTegic08162514323D

 50 52  0  0  1  0            999 V2000
   -0.1290   -2.1900   -0.7110 S   0  0
   -0.9960   -3.1230   -1.4080 O   0  0
    1.1000   -1.9000   -1.4320 O   0  0
   -1.0040   -0.6900   -0.6330 N   0  0
    0.2870   -2.8750    0.8200 C   0  0
   -1.3070   -0.0100   -1.8830 C   0  0  2  0  0  0
    0.3300   -4.2740    0.9760 C   0  0
    0.5840   -2.0350    1.9100 C   0  0
   -1.5940    1.4710   -1.6310 C   0  0
   -2.4490   -0.7170   -2.6130 C   0  0
    0.6700   -4.8300    2.2230 C   0  0
    0.0200   -5.1680   -0.1700 C   0  0
    0.9220   -2.5940    3.1540 C   0  0
    0.5410   -0.5570    1.7520 C   0  0
   -0.4670    2.0740   -1.0160 O   0  0
    0.9650   -3.9900    3.3120 C   0  0
   -0.3440    3.4060   -1.0960 C   0  0
    1.3220   -4.5800    4.6290 C   0  0
    0.8460    4.1820   -1.1390 C   0  0
   -1.5700    4.1270   -1.1470 C   0  0
    0.8300    5.5510   -1.2230 C   0  0
    2.1040    3.6870   -1.1020 C   0  0
   -1.5960    5.5450   -1.2330 C   0  0
    2.1520    5.9690   -1.2400 N   0  0
   -0.3810    6.2730   -1.2720 C   0  0
    2.9570    4.8050   -1.1660 C   0  0
   -1.8870   -0.8320   -0.1230 H   0  0
   -0.3690   -0.1350   -2.4220 H   0  0
   -2.4510    1.5900   -0.9670 H   0  0
   -1.7910    1.9900   -2.5700 H   0  0
   -2.1700   -1.7400   -2.8630 H   0  0
   -3.3480   -0.7340   -1.9980 H   0  0
   -2.6890   -0.2010   -3.5430 H   0  0
    0.7010   -5.9030    2.3440 H   0  0
    0.5020   -4.8830   -1.1060 H   0  0
   -1.0590   -5.1780   -0.3420 H   0  0
    0.3280   -6.1860    0.0680 H   0  0
    1.1480   -1.9490    3.9920 H   0  0
    0.9820   -0.1910    0.8240 H   0  0
    1.0680   -0.0880    2.5820 H   0  0
   -0.4960   -0.2190    1.7830 H   0  0
    1.5350   -3.8460    5.4060 H   0  0
    2.2050   -5.2110    4.5160 H   0  0
    0.5060   -5.2110    4.9780 H   0  0
   -2.5060    3.5860   -1.1170 H   0  0
    2.4020    2.6480   -1.0370 H   0  0
   -2.5390    6.0660   -1.2700 H   0  0
    2.4790    6.9040   -1.2970 H   0  0
   -0.3870    7.3520   -1.3380 H   0  0
    4.0390    4.8140   -1.1620 H   0  0
  1  2  2  0
  1  3  2  0
  1  4  1  0
  1  5  1  0
  4  6  1  0
  5  7  2  0
  5  8  1  0
  6  9  1  0
  6 10  1  0
  7 11  1  0
  7 12  1  0
  8 13  2  0
  8 14  1  0
  9 15  1  0
 11 16  2  0
 15 17  1  0
 16 18  1  0
 17 19  2  0
 17 20  1  0
 19 21  1  0
 19 22  1  0
 20 23  2  0
 21 24  1  0
 21 25  2  0
 22 26  2  0
 13 16  1  0
 23 25  1  0
 24 26  1  0
  4 27  1  0
  6 28  1  0
  9 29  1  0
  9 30  1  0
 10 31  1  0
 10 32  1  0
 10 33  1  0
 11 34  1  0
 12 35  1  0
 12 36  1  0
 12 37  1  0
 13 38  1  0
 14 39  1  0
 14 40  1  0
 14 41  1  0
 18 42  1  0
 18 43  1  0
 18 44  1  0
 20 45  1  0
 22 46  1  0
 23 47  1  0
 24 48  1  0
 25 49  1  0
 26 50  1  0
M  END
> <Name>
CHEMBL3261169

> <IC50 nM>
23

> <Molecule_ChEMBL_ID>
CHEMBL3261169

> <Smiles>
Cc1cc(C)c(S(=O)(=O)N[C@@H](C)COc2cccc3[nH]ccc23)c(C)c1

$$$$
CHEMBL291610
  SciTegic08162514323D

 45 48  0  0  1  0            999 V2000
   -4.4530   -1.5530    0.5920 S   0  0
   -4.2520   -2.3890   -0.5800 O   0  0
   -4.0840   -2.2090    1.8340 O   0  0
   -3.5020   -0.2500    0.4280 N   0  0
   -6.1760   -1.0800    0.6760 C   0  0
   -2.1720   -0.3940    0.3710 C   0  0
   -1.3300    0.7360    0.2520 C   0  0
   -1.5900   -1.6820    0.4260 C   0  0
    0.0860    0.5980    0.1910 C   0  0
   -0.1880   -1.8360    0.3790 C   0  0
    0.6720   -0.7030    0.2910 C   0  0
    0.9730    1.7950    0.0490 C   0  0  1  0  0  0
    2.1540   -0.8160    0.2930 C   0  0
    2.2810    1.4790   -0.4510 O   0  0
    0.4100    2.8420   -0.8540 C   0  0
    2.8980    0.3240   -0.1290 C   0  0
    2.8730   -1.9920    0.6840 C   0  0
    0.3460    2.6250   -2.2440 C   0  0
   -0.0630    4.0570   -0.3240 C   0  0
    4.3070    0.2720   -0.2310 C   0  0
    2.2690   -3.0880    1.1640 O   0  0
    4.2850   -2.0290    0.5860 C   0  0
   -0.1660    3.5690   -3.0900 N   0  0
   -0.5880    5.0200   -1.2030 C   0  0
    5.0000   -0.9040    0.1230 C   0  0
    2.9690   -4.3200    1.0940 C   0  0
   -0.6270    4.7480   -2.5840 C   0  0
   -3.9100    0.6620    0.3690 H   0  0
   -6.8650   -1.9180    0.7870 H   0  0
   -6.4490   -0.5410   -0.2310 H   0  0
   -6.3280   -0.4100    1.5210 H   0  0
   -1.7740    1.7230    0.2090 H   0  0
   -2.2090   -2.5640    0.5060 H   0  0
    0.1800   -2.8500    0.4080 H   0  0
    1.0990    2.2350    1.0410 H   0  0
    0.7070    1.6940   -2.6580 H   0  0
   -0.0260    4.2500    0.7380 H   0  0
    4.8570    1.1330   -0.5760 H   0  0
    4.8220   -2.9220    0.8690 H   0  0
   -0.9570    5.9610   -0.8200 H   0  0
    6.0760   -0.9430    0.0430 H   0  0
    2.2770   -5.1210    1.3570 H   0  0
    3.4370   -4.3930    0.1130 H   0  0
    3.7640   -4.3070    1.8420 H   0  0
   -1.0310    5.4900   -3.2600 H   0  0
  1  2  2  0
  1  3  2  0
  1  4  1  0
  1  5  1  0
  4  6  1  0
  6  7  2  0
  6  8  1  0
  7  9  1  0
  8 10  2  0
  9 11  2  0
  9 12  1  0
 11 13  1  0
 12 14  1  0
 12 15  1  0
 13 16  2  0
 13 17  1  0
 15 18  2  0
 15 19  1  0
 16 20  1  0
 17 21  1  0
 17 22  2  0
 18 23  1  0
 19 24  2  0
 20 25  2  0
 21 26  1  0
 23 27  2  0
 10 11  1  0
 14 16  1  0
 22 25  1  0
 24 27  1  0
  4 28  1  0
  5 29  1  0
  5 30  1  0
  5 31  1  0
  7 32  1  0
  8 33  1  0
 10 34  1  0
 12 35  1  0
 18 36  1  0
 19 37  1  0
 20 38  1  0
 22 39  1  0
 24 40  1  0
 25 41  1  0
 26 42  1  0
 26 43  1  0
 26 44  1  0
 27 45  1  0
M  END
> <Name>
CHEMBL291610

> <IC50 nM>
460

> <Molecule_ChEMBL_ID>
CHEMBL291610

> <Smiles>
COc1cccc2c1-c1ccc(NS(C)(=O)=O)cc1C(c1cccnc1)O2

$$$$
CHEMBL79378
  SciTegic08162514323D

 61 65  0  0  1  0            999 V2000
   -5.3140    6.7500   -1.6620 F   0  0
   -4.8480    5.5060   -1.5840 C   0  0
   -3.6740    5.1520   -2.2720 C   0  0
   -5.5270    4.5470   -0.8150 C   0  0
   -3.1800    3.8400   -2.1900 C   0  0
   -5.0350    3.2340   -0.7310 C   0  0
   -3.8590    2.8750   -1.4180 C   0  0
   -3.3810    1.6070   -1.3380 N   0  0
   -4.1450    0.4840   -1.4460 N   0  0
   -2.0820    1.2580   -1.1430 C   0  0
   -3.4260   -0.6640   -1.3210 C   0  0
   -2.1560   -0.1250   -1.1230 C   0  0
   -0.8420    2.0350   -0.9770 C   0  0
   -0.8750   -0.9080   -0.8710 C   0  0
    0.3380    1.3750   -0.9960 C   0  0
    0.4080   -0.1290   -1.3130 C   0  0  1  0  0  0
    1.6310    2.1150   -0.7230 C   0  0
    1.6620   -0.7290   -0.6190 C   0  0  1  0  0  0
    0.5510   -0.2600   -2.8360 C   0  0
    2.8180    1.4430   -1.4220 C   0  0
    1.7700   -2.2480   -0.8030 C   0  0  1  0  0  0
    2.9810   -0.0370   -1.0350 C   0  0
    2.0940   -2.5060   -2.1510 O   0  0
    2.8500   -2.8730    0.0780 C   0  0
    2.5290   -2.7290    1.5210 C   0  0
    1.4840   -3.4790    2.0900 C   0  0
    3.2700   -1.8420    2.3220 C   0  0
    1.1840   -3.3420    3.4550 C   0  0
    2.9670   -1.7050    3.6870 C   0  0
    1.9220   -2.4530    4.2580 C   0  0
    1.6390   -2.3260    5.5390 O   0  0
    0.5370   -3.0590    6.0550 C   0  0
   -3.1480    5.8870   -2.8640 H   0  0
   -6.4300    4.8160   -0.2850 H   0  0
   -2.2730    3.5860   -2.7250 H   0  0
   -5.5720    2.5100   -0.1330 H   0  0
   -3.7850   -1.6840   -1.3670 H   0  0
   -0.8770    3.1070   -0.8420 H   0  0
   -0.9300   -1.8790   -1.3670 H   0  0
   -0.8340   -1.1150    0.1990 H   0  0
    1.5510    3.1480   -1.0590 H   0  0
    1.8030    2.1470    0.3530 H   0  0
    1.5390   -0.5550    0.4510 H   0  0
    1.5760   -0.1000   -3.1640 H   0  0
   -0.0800    0.4690   -3.3460 H   0  0
    0.2460   -1.2540   -3.1680 H   0  0
    3.7400    1.9860   -1.2130 H   0  0
    2.6700    1.5140   -2.5000 H   0  0
    0.8160   -2.7310   -0.5860 H   0  0
    3.6930   -0.1230   -0.2130 H   0  0
    3.4340   -0.5630   -1.8770 H   0  0
    1.9980   -3.4630   -2.2890 H   0  0
    2.9790   -3.9300   -0.1600 H   0  0
    3.8220   -2.4240   -0.1250 H   0  0
    0.9120   -4.1620    1.4800 H   0  0
    4.0740   -1.2620    1.8920 H   0  0
    0.3790   -3.9200    3.8890 H   0  0
    3.5390   -1.0210    4.2990 H   0  0
    0.4790   -2.8770    7.1270 H   0  0
   -0.3480   -2.7990    5.4730 H   0  0
    0.7340   -4.1210    5.9060 H   0  0
  1  2  1  0
  2  3  2  0
  2  4  1  0
  3  5  1  0
  4  6  2  0
  5  7  2  0
  7  8  1  0
  8  9  1  0
  8 10  1  0
  9 11  2  0
 10 12  2  0
 10 13  1  0
 12 14  1  0
 13 15  2  0
 14 16  1  0
 15 17  1  0
 16 18  1  0
 16 19  1  0
 17 20  1  0
 18 21  1  0
 18 22  1  0
 21 23  1  0
 21 24  1  0
 24 25  1  0
 25 26  2  0
 25 27  1  0
 26 28  1  0
 27 29  2  0
 28 30  2  0
 30 31  1  0
 31 32  1  0
  6  7  1  0
 11 12  1  0
 15 16  1  0
 20 22  1  0
 29 30  1  0
  3 33  1  0
  4 34  1  0
  5 35  1  0
  6 36  1  0
 11 37  1  0
 13 38  1  0
 14 39  1  0
 14 40  1  0
 17 41  1  0
 17 42  1  0
 18 43  1  0
 19 44  1  0
 19 45  1  0
 19 46  1  0
 20 47  1  0
 20 48  1  0
 21 49  1  0
 22 50  1  0
 22 51  1  0
 23 52  1  0
 24 53  1  0
 24 54  1  0
 26 55  1  0
 27 56  1  0
 28 57  1  0
 29 58  1  0
 32 59  1  0
 32 60  1  0
 32 61  1  0
M  END
> <Name>
CHEMBL79378

> <IC50 nM>
6.3

> <Molecule_ChEMBL_ID>
CHEMBL79378

> <Smiles>
COc1ccc(C[C@H](O)[C@H]2CCCC3=Cc4c(cnn4-c4ccc(F)cc4)C[C@@]32C)cc1

$$$$
CHEMBL3261174
  SciTegic08162514323D

 55 57  0  0  1  0            999 V2000
   -0.8220   -2.8670   -0.0430 S   0  0
   -2.0530   -3.6330    0.0510 O   0  0
   -0.0370   -3.1860   -1.2230 O   0  0
   -1.3030   -1.2050   -0.2190 N   0  0
    0.1370   -3.2090    1.3550 C   0  0
   -1.9960   -0.8220   -1.4380 C   0  0  2  0  0  0
    0.0220   -4.4550    2.0000 C   0  0
    1.0310   -2.2400    1.8480 C   0  0
   -2.0550    0.7010   -1.5630 C   0  0
   -3.3790   -1.4730   -1.4940 C   0  0
    0.8030   -4.7310    3.1370 C   0  0
   -0.9200   -5.4830    1.4840 C   0  0
    1.8110   -2.5200    2.9840 C   0  0
    1.1580   -0.9220    1.1720 C   0  0
   -0.7070    1.2700   -1.7150 N   0  0
    1.6970   -3.7640    3.6290 C   0  0
   -0.5370    2.6060   -1.7290 C   0  0
    2.5220   -4.0570    4.8300 C   0  0
    0.7520    3.2290   -1.7420 C   0  0
   -1.6930    3.4220   -1.7300 C   0  0
    0.8610    4.6640   -1.7560 C   0  0
    1.9550    2.4570   -1.7440 C   0  0
   -1.5880    4.8280   -1.7440 C   0  0
    2.1070    5.2700   -1.7700 N   0  0
   -0.3220    5.4530   -1.7560 C   0  0
    3.2130    3.1060   -1.7580 C   0  0
    3.2600    4.5180   -1.7700 C   0  0
   -0.2640    6.9280   -1.7700 C   0  0
   -1.8870   -0.9300    0.5840 H   0  0
   -1.3400   -1.2460   -2.1950 H   0  0
   -2.5330    1.1430   -0.6880 H   0  0
   -2.6660    0.9940   -2.4160 H   0  0
   -3.2930   -2.5530   -1.6020 H   0  0
   -3.9470   -1.2480   -0.5900 H   0  0
   -3.9470   -1.0960   -2.3460 H   0  0
    0.7150   -5.6880    3.6310 H   0  0
   -0.8870   -5.6210    0.4040 H   0  0
   -1.9410   -5.2090    1.7540 H   0  0
   -0.7010   -6.4430    1.9510 H   0  0
    2.4980   -1.7750    3.3630 H   0  0
    1.1800   -0.9770    0.0840 H   0  0
    2.0740   -0.4320    1.5000 H   0  0
    0.3200   -0.2850    1.4570 H   0  0
    0.0840    0.6640   -1.8070 H   0  0
    3.1800   -3.2440    5.1310 H   0  0
    3.1390   -4.9360    4.6430 H   0  0
    1.8670   -4.2850    5.6740 H   0  0
   -2.6820    2.9820   -1.7190 H   0  0
    1.9400    1.3770   -1.7340 H   0  0
   -2.4880    5.4260   -1.7440 H   0  0
    4.1250    2.5270   -1.7600 H   0  0
    4.2190    5.0160   -1.7810 H   0  0
   -1.2400    7.4140   -1.7700 H   0  0
    0.2730    7.2620   -2.6580 H   0  0
    0.2850    7.2770   -0.8960 H   0  0
  1  2  2  0
  1  3  2  0
  1  4  1  0
  1  5  1  0
  4  6  1  0
  5  7  2  0
  5  8  1  0
  6  9  1  0
  6 10  1  0
  7 11  1  0
  7 12  1  0
  8 13  2  0
  8 14  1  0
  9 15  1  0
 11 16  2  0
 15 17  1  0
 16 18  1  0
 17 19  2  0
 17 20  1  0
 19 21  1  0
 19 22  1  0
 20 23  2  0
 21 24  1  0
 21 25  2  0
 22 26  2  0
 24 27  2  0
 25 28  1  0
 13 16  1  0
 23 25  1  0
 26 27  1  0
  4 29  1  0
  6 30  1  0
  9 31  1  0
  9 32  1  0
 10 33  1  0
 10 34  1  0
 10 35  1  0
 11 36  1  0
 12 37  1  0
 12 38  1  0
 12 39  1  0
 13 40  1  0
 14 41  1  0
 14 42  1  0
 14 43  1  0
 15 44  1  0
 18 45  1  0
 18 46  1  0
 18 47  1  0
 20 48  1  0
 22 49  1  0
 23 50  1  0
 26 51  1  0
 27 52  1  0
 28 53  1  0
 28 54  1  0
 28 55  1  0
M  END
> <Name>
CHEMBL3261174

> <IC50 nM>
1100

> <Molecule_ChEMBL_ID>
CHEMBL3261174

> <Smiles>
Cc1cc(C)c(S(=O)(=O)N[C@@H](C)CNc2ccc(C)c3ncccc23)c(C)c1

$$$$
CHEMBL470783
  SciTegic08162514323D

 66 70  0  0  1  0            999 V2000
    1.3430   -0.9140    3.5850 O   0  0
    0.8680   -0.3340    2.4740 C   0  0
    2.6740   -1.4080    3.5630 C   0  0
    1.6880   -0.2230    1.3290 C   0  0
   -0.4510    0.1710    2.4470 C   0  0
    3.0000   -2.0130    4.8820 C   0  0
    1.1890    0.3880    0.1510 C   0  0
   -0.9560    0.7760    1.2740 C   0  0
    4.2700   -2.5830    5.1280 C   0  0
    2.0340   -2.0220    5.9040 C   0  0
   -0.1470    0.8810    0.1080 C   0  0
    2.0550    0.5300   -1.0450 C   0  0
    4.5720   -3.1390    6.3370 N   0  0
    5.3110   -2.5870    4.0650 C   0  0
    2.3580   -2.5980    7.1430 C   0  0
   -0.6390    1.4900   -1.1730 C   0  0  1  0  0  0
    1.3170    0.2860   -2.3790 C   0  0
    3.6390   -3.1500    7.3330 C   0  0
   -0.2070    0.5670   -2.3510 C   0  0  2  0  0  0
   -2.1830    1.6690   -1.2230 C   0  0
    0.0100    2.8760   -1.3230 C   0  0
   -0.7100    1.0740   -3.7210 C   0  0
   -2.6790    2.1870   -2.5900 C   0  0  1  0  0  0
   -0.1050    3.7210   -0.0540 C   0  0
   -2.2430    1.2670   -3.7650 C   0  0  1  0  0  0
   -4.0880    2.3460   -2.5350 O   0  0
   -2.5490    1.9130   -4.9880 O   0  0
   -2.9430   -0.0550   -3.7650 C   0  0
   -4.3490   -0.1070   -3.7650 C   0  0
   -2.1970   -1.2470   -3.7650 C   0  0
   -5.0060   -1.3490   -3.7650 C   0  0
   -2.8550   -2.4890   -3.7650 C   0  0
   -4.2600   -2.5400   -3.7650 C   0  0
    3.3450   -0.5710    3.3710 H   0  0
    2.7420   -2.1700    2.7860 H   0  0
    2.6980   -0.6060    1.3570 H   0  0
   -1.0760    0.0940    3.3250 H   0  0
   -1.9670    1.1490    1.2940 H   0  0
    1.0550   -1.5940    5.7430 H   0  0
    2.4490    1.5470   -1.0380 H   0  0
    2.9250   -0.1260   -0.9850 H   0  0
    6.2520   -3.0510    4.3620 H   0  0
    5.5250   -1.5620    3.7620 H   0  0
    4.9360   -3.1220    3.1920 H   0  0
    1.6330   -2.6160    7.9430 H   0  0
    1.4710   -0.7470   -2.6950 H   0  0
    1.7970    0.8950   -3.1450 H   0  0
    3.8910   -3.5930    8.2850 H   0  0
   -0.6850   -0.4000   -2.1820 H   0  0
   -2.6740    0.7190   -0.9990 H   0  0
   -2.5020    2.3720   -0.4510 H   0  0
    1.0510    2.7830   -1.6300 H   0  0
   -0.4080    3.4070   -2.1780 H   0  0
   -0.3850    0.3880   -4.5070 H   0  0
   -0.2130    2.0220   -3.9360 H   0  0
   -2.2730    3.1880   -2.7430 H   0  0
    0.3250    4.7110   -0.2100 H   0  0
   -1.1480    3.8290    0.2440 H   0  0
    0.4310    3.2520    0.7720 H   0  0
   -4.2720    3.0530   -1.8960 H   0  0
   -3.5080    2.0590   -5.0020 H   0  0
   -4.9280    0.8050   -3.7650 H   0  0
   -1.1170   -1.2140   -3.7650 H   0  0
   -6.0860   -1.3880   -3.7650 H   0  0
   -2.2820   -3.4040   -3.7650 H   0  0
   -4.7660   -3.4940   -3.7650 H   0  0
  1  2  1  0
  1  3  1  0
  2  4  2  0
  2  5  1  0
  3  6  1  0
  4  7  1  0
  5  8  2  0
  6  9  2  0
  6 10  1  0
  7 11  2  0
  7 12  1  0
  9 13  1  0
  9 14  1  0
 10 15  2  0
 11 16  1  0
 12 17  1  0
 13 18  2  0
 16 19  1  0
 16 20  1  0
 16 21  1  0
 19 22  1  0
 20 23  1  0
 21 24  1  0
 22 25  1  0
 23 26  1  0
 25 27  1  0
 25 28  1  0
 28 29  2  0
 28 30  1  0
 29 31  1  0
 30 32  2  0
 31 33  2  0
  8 11  1  0
 15 18  1  0
 17 19  1  0
 23 25  1  0
 32 33  1  0
  3 34  1  0
  3 35  1  0
  4 36  1  0
  5 37  1  0
  8 38  1  0
 10 39  1  0
 12 40  1  0
 12 41  1  0
 14 42  1  0
 14 43  1  0
 14 44  1  0
 15 45  1  0
 17 46  1  0
 17 47  1  0
 18 48  1  0
 19 49  1  0
 20 50  1  0
 20 51  1  0
 21 52  1  0
 21 53  1  0
 22 54  1  0
 22 55  1  0
 23 56  1  0
 24 57  1  0
 24 58  1  0
 24 59  1  0
 26 60  1  0
 27 61  1  0
 29 62  1  0
 30 63  1  0
 31 64  1  0
 32 65  1  0
 33 66  1  0
M  END
> <Name>
CHEMBL470783

> <IC50 nM>
1.5

> <Molecule_ChEMBL_ID>
CHEMBL470783

> <Smiles>
CC[C@@]12C[C@H](O)[C@](O)(c3ccccc3)C[C@H]1CCc1cc(OCc3cccnc3C)ccc12

$$$$
CHEMBL404496
  SciTegic08162514323D

 47 50  0  0  1  0            999 V2000
   -1.0740    2.5900   -0.4020 Cl  0  0
   -0.4960    1.0330    0.1020 C   0  0
   -1.4120   -0.0530    0.1990 C   0  0
    0.8910    0.8200    0.4120 C   0  0
   -2.8670    0.1230   -0.0490 C   0  0
   -0.9610   -1.3440    0.5370 C   0  0
    1.3520   -0.5180    0.6720 C   0  0
    1.8580    1.9750    0.4530 C   0  0  2  0  0  0
   -3.5600   -0.4570   -1.0450 C   0  0
   -3.6840    0.9260    0.7420 C   0  0
    0.4080   -1.5840    0.7580 C   0  0
    2.6800   -0.7830    0.8260 N   0  0
    3.2350    1.5960    1.0330 C   0  0
    1.3420    3.1640    1.2790 C   0  0
   -4.8730   -0.0550   -0.9470 C   0  0
   -3.1170   -1.3380   -2.0620 C   0  0
   -4.9750    0.8070    0.1560 N   0  0
    0.8170   -2.9690    1.0700 C   0  0
    3.7290    0.2270    0.5530 C   0  0
   -5.8440   -0.5100   -1.8690 C   0  0
   -4.0760   -1.8070   -2.9980 C   0  0
    5.0100   -0.1560    1.3010 C   0  0
    4.0140    0.2500   -0.9550 C   0  0
   -5.4340   -1.3950   -2.9020 C   0  0
   -1.6640   -2.1620    0.6230 H   0  0
    2.0060    2.3070   -0.5740 H   0  0
   -3.4390    1.5230    1.6110 H   0  0
    2.9860   -1.6930    1.1060 H   0  0
    3.1720    1.5840    2.1250 H   0  0
    3.9650    2.3650    0.7870 H   0  0
    0.9120    3.9280    0.6290 H   0  0
    0.5860    2.8400    1.9940 H   0  0
    2.1560    3.6250    1.8400 H   0  0
   -2.0860   -1.6500   -2.1330 H   0  0
   -5.8010    1.2560    0.4790 H   0  0
    1.3200   -3.0840    2.0290 H   0  0
    1.4880   -3.3340    0.2930 H   0  0
   -0.0640   -3.6130    1.0780 H   0  0
   -6.8750   -0.1950   -1.7950 H   0  0
   -3.7730   -2.4810   -3.7850 H   0  0
    4.8520   -0.2130    2.3770 H   0  0
    5.7970    0.5760    1.1190 H   0  0
    5.3770   -1.1270    0.9670 H   0  0
    3.1170    0.4690   -1.5350 H   0  0
    4.4010   -0.7130   -1.2870 H   0  0
    4.7600    1.0100   -1.1930 H   0  0
   -6.1560   -1.7580   -3.6190 H   0  0
  1  2  1  0
  2  3  2  0
  2  4  1  0
  3  5  1  0
  3  6  1  0
  4  7  2  0
  4  8  1  0
  5  9  1  0
  5 10  2  0
  6 11  2  0
  7 12  1  0
  8 13  1  0
  8 14  1  0
  9 15  1  0
  9 16  2  0
 10 17  1  0
 11 18  1  0
 12 19  1  0
 15 20  2  0
 16 21  1  0
 19 22  1  0
 19 23  1  0
 20 24  1  0
  7 11  1  0
 13 19  1  0
 15 17  1  0
 21 24  2  0
  6 25  1  0
  8 26  1  0
 10 27  1  0
 12 28  1  0
 13 29  1  0
 13 30  1  0
 14 31  1  0
 14 32  1  0
 14 33  1  0
 16 34  1  0
 17 35  1  0
 18 36  1  0
 18 37  1  0
 18 38  1  0
 20 39  1  0
 21 40  1  0
 22 41  1  0
 22 42  1  0
 22 43  1  0
 23 44  1  0
 23 45  1  0
 23 46  1  0
 24 47  1  0
M  END
> <Name>
CHEMBL404496

> <IC50 nM>
1000

> <Molecule_ChEMBL_ID>
CHEMBL404496

> <Smiles>
Cc1cc(-c2c[nH]c3ccccc23)c(Cl)c2c1NC(C)(C)CC2C

$$$$
CHEMBL402362
  SciTegic08162514323D

 47 50  0  0  1  0            999 V2000
   -0.8180    2.2310   -0.8010 Cl  0  0
   -0.2420    0.6760   -0.2930 C   0  0
   -1.1600   -0.4100   -0.1970 C   0  0
    1.1430    0.4630    0.0190 C   0  0
   -2.5900   -0.2400   -0.4450 C   0  0
   -0.7090   -1.7010    0.1440 C   0  0
    1.6030   -0.8750    0.2790 C   0  0
    2.1110    1.6170    0.0640 C   0  0  2  0  0  0
   -3.3630    0.5720    0.4260 C   0  0
   -3.1950   -0.8910   -1.5590 C   0  0
    0.6600   -1.9410    0.3650 C   0  0
    2.9320   -1.1430    0.4320 N   0  0
    3.4880    1.2360    0.6410 C   0  0
    1.5940    2.8070    0.8910 C   0  0
   -4.7440    0.7130    0.1520 C   0  0
   -4.5840   -0.7270   -1.8030 C   0  0
    1.0680   -3.3260    0.6820 C   0  0
    3.9800   -0.1310    0.1560 C   0  0
   -5.7420    1.4220    0.8010 N   0  0
   -5.3340    0.0900   -0.9200 C   0  0
    5.2660   -0.5140    0.9020 C   0  0
    4.2620   -0.1070   -1.3500 C   0  0
   -6.9440    1.2010    0.0820 C   0  0
   -6.6560    0.3520   -1.0040 C   0  0
   -1.4100   -2.5220    0.2320 H   0  0
    2.2580    1.9490   -0.9650 H   0  0
   -2.9220    1.0720    1.2750 H   0  0
   -2.6110   -1.5100   -2.2230 H   0  0
    3.2380   -2.0530    0.7130 H   0  0
    3.4320    1.2250    1.7320 H   0  0
    4.2190    2.0100    0.3930 H   0  0
    1.1720    3.5720    0.2400 H   0  0
    0.8320    2.4810    1.6000 H   0  0
    2.4060    3.2620    1.4590 H   0  0
   -5.0510   -1.2170   -2.6450 H   0  0
    1.5740   -3.4380    1.6410 H   0  0
    1.7400   -3.6930   -0.0960 H   0  0
    0.1890   -3.9710    0.6910 H   0  0
   -5.6390    1.9820    1.6150 H   0  0
    5.1090   -0.5640    1.9800 H   0  0
    6.0530    0.2150    0.7130 H   0  0
    5.6270   -1.4880    0.5720 H   0  0
    3.3650    0.1210   -1.9260 H   0  0
    4.6390   -1.0720   -1.6880 H   0  0
    5.0120    0.6460   -1.5880 H   0  0
   -7.8990    1.6290    0.3550 H   0  0
   -7.3560   -0.0100   -1.7460 H   0  0
  1  2  1  0
  2  3  2  0
  2  4  1  0
  3  5  1  0
  3  6  1  0
  4  7  2  0
  4  8  1  0
  5  9  2  0
  5 10  1  0
  6 11  2  0
  7 12  1  0
  8 13  1  0
  8 14  1  0
  9 15  1  0
 10 16  2  0
 11 17  1  0
 12 18  1  0
 15 19  1  0
 15 20  2  0
 18 21  1  0
 18 22  1  0
 19 23  1  0
 20 24  1  0
  7 11  1  0
 13 18  1  0
 16 20  1  0
 23 24  2  0
  6 25  1  0
  8 26  1  0
  9 27  1  0
 10 28  1  0
 12 29  1  0
 13 30  1  0
 13 31  1  0
 14 32  1  0
 14 33  1  0
 14 34  1  0
 16 35  1  0
 17 36  1  0
 17 37  1  0
 17 38  1  0
 19 39  1  0
 21 40  1  0
 21 41  1  0
 21 42  1  0
 22 43  1  0
 22 44  1  0
 22 45  1  0
 23 46  1  0
 24 47  1  0
M  END
> <Name>
CHEMBL402362

> <IC50 nM>
1000

> <Molecule_ChEMBL_ID>
CHEMBL402362

> <Smiles>
Cc1cc(-c2ccc3cc[nH]c3c2)c(Cl)c2c1NC(C)(C)CC2C

$$$$
CHEMBL403274
  SciTegic08162514323D

 47 50  0  0  1  0            999 V2000
   -1.0920    2.5060   -0.4900 Cl  0  0
   -0.5160    0.9510    0.0180 C   0  0
   -1.4320   -0.1350    0.1130 C   0  0
    0.8690    0.7380    0.3300 C   0  0
   -2.8630    0.0350   -0.1350 C   0  0
   -0.9820   -1.4280    0.4550 C   0  0
    1.3300   -0.6000    0.5900 C   0  0
    1.8380    1.8910    0.3750 C   0  0  2  0  0  0
   -3.4880   -0.5590   -1.2620 C   0  0
   -3.6520    0.8050    0.7600 C   0  0
    0.3890   -1.6680    0.6760 C   0  0
    2.6580   -0.8670    0.7420 N   0  0
    3.2150    1.5120    0.9510 C   0  0
    1.3220    3.0800    1.2010 C   0  0
   -3.0020   -1.3500   -2.2950 N   0  0
   -4.8300   -0.3980   -1.4920 C   0  0
   -5.0430    0.9690    0.5160 C   0  0
    0.7950   -3.0510    0.9920 C   0  0
    3.7070    0.1430    0.4670 C   0  0
   -4.0980   -1.6520   -3.1420 C   0  0
   -5.6450    0.3650   -0.6210 C   0  0
   -5.2440   -1.0350   -2.6090 C   0  0
   -5.7830    1.6910    1.3520 F   0  0
    4.9920   -0.2400    1.2130 C   0  0
    3.9880    0.1680   -1.0390 C   0  0
   -1.6840   -2.2460    0.5430 H   0  0
    1.9840    2.2250   -0.6540 H   0  0
   -3.2070    1.2700    1.6290 H   0  0
    2.9650   -1.7790    1.0240 H   0  0
    3.1580    1.4980    2.0430 H   0  0
    3.9450    2.2830    0.7030 H   0  0
    0.9040    3.8500    0.5510 H   0  0
    0.5570    2.7580    1.9060 H   0  0
    2.1310    3.5330    1.7740 H   0  0
   -2.0640   -1.6500   -2.4240 H   0  0
    1.3130   -3.1600    1.9460 H   0  0
    1.4570   -3.4220    0.2090 H   0  0
   -0.0860   -3.6930    1.0140 H   0  0
   -4.0220   -2.2580   -4.0350 H   0  0
   -6.7030    0.4880   -0.8080 H   0  0
   -6.2460   -1.0720   -3.0190 H   0  0
    4.8340   -0.2970    2.2910 H   0  0
    5.7770    0.4940    1.0290 H   0  0
    5.3580   -1.2090    0.8770 H   0  0
    3.0900    0.3850   -1.6150 H   0  0
    4.3750   -0.7950   -1.3730 H   0  0
    4.7310    0.9280   -1.2790 H   0  0
  1  2  1  0
  2  3  2  0
  2  4  1  0
  3  5  1  0
  3  6  1  0
  4  7  2  0
  4  8  1  0
  5  9  2  0
  5 10  1  0
  6 11  2  0
  7 12  1  0
  8 13  1  0
  8 14  1  0
  9 15  1  0
  9 16  1  0
 10 17  2  0
 11 18  1  0
 12 19  1  0
 15 20  1  0
 16 21  2  0
 16 22  1  0
 17 23  1  0
 19 24  1  0
 19 25  1  0
  7 11  1  0
 13 19  1  0
 17 21  1  0
 20 22  2  0
  6 26  1  0
  8 27  1  0
 10 28  1  0
 12 29  1  0
 13 30  1  0
 13 31  1  0
 14 32  1  0
 14 33  1  0
 14 34  1  0
 15 35  1  0
 18 36  1  0
 18 37  1  0
 18 38  1  0
 20 39  1  0
 21 40  1  0
 22 41  1  0
 24 42  1  0
 24 43  1  0
 24 44  1  0
 25 45  1  0
 25 46  1  0
 25 47  1  0
M  END
> <Name>
CHEMBL403274

> <IC50 nM>
3.1

> <Molecule_ChEMBL_ID>
CHEMBL403274

> <Smiles>
Cc1cc(-c2cc(F)cc3cc[nH]c23)c(Cl)c2c1NC(C)(C)CC2C

$$$$
CHEMBL257152
  SciTegic08162514323D

 47 50  0  0  1  0            999 V2000
   -1.0900    2.5080   -0.4860 Cl  0  0
   -0.5140    0.9530    0.0230 C   0  0
   -1.4320   -0.1330    0.1190 C   0  0
    0.8710    0.7400    0.3360 C   0  0
   -2.8610    0.0370   -0.1310 C   0  0
   -0.9810   -1.4260    0.4590 C   0  0
    1.3320   -0.5980    0.5940 C   0  0
    1.8380    1.8930    0.3790 C   0  0  2  0  0  0
   -3.4860   -0.5550   -1.2580 C   0  0
   -3.6510    0.8050    0.7660 C   0  0
    0.3890   -1.6660    0.6800 C   0  0
    2.6600   -0.8650    0.7460 N   0  0
    3.2170    1.5140    0.9550 C   0  0
    1.3220    3.0820    1.2050 C   0  0
   -2.9960   -1.3460   -2.2910 N   0  0
   -4.8300   -0.3950   -1.4900 C   0  0
   -5.0410    0.9710    0.5210 C   0  0
    0.7970   -3.0490    0.9960 C   0  0
    3.7090    0.1440    0.4730 C   0  0
   -4.0880   -1.6490   -3.1410 C   0  0
   -5.6450    0.3690   -0.6150 C   0  0
   -5.2360   -1.0350   -2.6110 C   0  0
    4.9920   -0.2380    1.2190 C   0  0
    3.9900    0.1700   -1.0330 C   0  0
   -6.9470    0.5290   -0.8400 F   0  0
   -1.6820   -2.2440    0.5470 H   0  0
    1.9840    2.2270   -0.6490 H   0  0
   -3.2090    1.2690    1.6370 H   0  0
    2.9650   -1.7770    1.0290 H   0  0
    3.1600    1.5000    2.0470 H   0  0
    3.9470    2.2850    0.7090 H   0  0
    0.9040    3.8520    0.5550 H   0  0
    0.5590    2.7600    1.9120 H   0  0
    2.1330    3.5350    1.7770 H   0  0
   -2.0590   -1.6450   -2.4160 H   0  0
   -5.6390    1.5570    1.2030 H   0  0
    1.3140   -3.1580    1.9490 H   0  0
    1.4590   -3.4200    0.2130 H   0  0
   -0.0840   -3.6920    1.0190 H   0  0
   -4.0080   -2.2540   -4.0350 H   0  0
   -6.2370   -1.0740   -3.0260 H   0  0
    4.8360   -0.2950    2.2950 H   0  0
    5.7770    0.4960    1.0350 H   0  0
    5.3590   -1.2070    0.8830 H   0  0
    3.0920    0.3870   -1.6110 H   0  0
    4.3770   -0.7910   -1.3690 H   0  0
    4.7320    0.9320   -1.2750 H   0  0
  1  2  1  0
  2  3  2  0
  2  4  1  0
  3  5  1  0
  3  6  1  0
  4  7  2  0
  4  8  1  0
  5  9  2  0
  5 10  1  0
  6 11  2  0
  7 12  1  0
  8 13  1  0
  8 14  1  0
  9 15  1  0
  9 16  1  0
 10 17  2  0
 11 18  1  0
 12 19  1  0
 15 20  1  0
 16 21  2  0
 16 22  1  0
 19 23  1  0
 19 24  1  0
 21 25  1  0
  7 11  1  0
 13 19  1  0
 17 21  1  0
 20 22  2  0
  6 26  1  0
  8 27  1  0
 10 28  1  0
 12 29  1  0
 13 30  1  0
 13 31  1  0
 14 32  1  0
 14 33  1  0
 14 34  1  0
 15 35  1  0
 17 36  1  0
 18 37  1  0
 18 38  1  0
 18 39  1  0
 20 40  1  0
 22 41  1  0
 23 42  1  0
 23 43  1  0
 23 44  1  0
 24 45  1  0
 24 46  1  0
 24 47  1  0
M  END
> <Name>
CHEMBL257152

> <IC50 nM>
5

> <Molecule_ChEMBL_ID>
CHEMBL257152

> <Smiles>
Cc1cc(-c2ccc(F)c3cc[nH]c23)c(Cl)c2c1NC(C)(C)CC2C

$$$$
CHEMBL436848
  SciTegic08162514323D

 47 50  0  0  1  0            999 V2000
   -0.7480    2.2720   -0.7130 Cl  0  0
   -0.1700    0.7150   -0.2070 C   0  0
   -1.0860   -0.3710   -0.1110 C   0  0
    1.2150    0.5020    0.1040 C   0  0
   -2.5410   -0.1950   -0.3590 C   0  0
   -0.6350   -1.6620    0.2270 C   0  0
    1.6780   -0.8360    0.3610 C   0  0
    2.1840    1.6560    0.1450 C   0  0  2  0  0  0
   -3.2990   -0.8140   -1.3710 N   0  0
   -3.3200    0.6520    0.4410 C   0  0
    0.7340   -1.9020    0.4470 C   0  0
    3.0060   -1.1020    0.5160 N   0  0
    3.5610    1.2770    0.7230 C   0  0
    1.6680    2.8460    0.9690 C   0  0
   -4.5880   -0.3320   -1.1870 C   0  0
   -4.5550    0.5290   -0.1070 C   0  0
    1.1410   -3.2870    0.7600 C   0  0
    4.0530   -0.0920    0.2420 C   0  0
   -5.7870   -0.5900   -1.8890 C   0  0
   -5.7250    1.1890    0.3380 C   0  0
    5.3360   -0.4750    0.9900 C   0  0
    4.3400   -0.0680   -1.2640 C   0  0
   -6.9730    0.0630   -1.4630 C   0  0
   -6.9420    0.9490   -0.3530 C   0  0
   -1.3380   -2.4810    0.3140 H   0  0
    2.3320    1.9880   -0.8850 H   0  0
   -2.9860   -1.4530   -2.0640 H   0  0
   -3.0120    1.2560    1.2870 H   0  0
    3.3130   -2.0120    0.7950 H   0  0
    3.4980    1.2660    1.8150 H   0  0
    4.2910    2.0470    0.4770 H   0  0
    1.2460    3.6130    0.3180 H   0  0
    0.9060    2.5230    1.6780 H   0  0
    2.4800    3.3010    1.5370 H   0  0
    1.6680   -3.3980    1.7070 H   0  0
    1.7950   -3.6600   -0.0290 H   0  0
    0.2600   -3.9280    0.7910 H   0  0
   -5.8030   -1.2660   -2.7320 H   0  0
   -5.7030    1.8650    1.1820 H   0  0
    5.1780   -0.5270    2.0680 H   0  0
    6.1230    0.2560    0.8070 H   0  0
    5.7010   -1.4470    0.6600 H   0  0
    3.4450    0.1560   -1.8460 H   0  0
    4.7210   -1.0330   -1.6000 H   0  0
    5.0900    0.6860   -1.5020 H   0  0
   -7.9030   -0.1170   -1.9820 H   0  0
   -7.8480    1.4410   -0.0330 H   0  0
  1  2  1  0
  2  3  2  0
  2  4  1  0
  3  5  1  0
  3  6  1  0
  4  7  2  0
  4  8  1  0
  5  9  1  0
  5 10  2  0
  6 11  2  0
  7 12  1  0
  8 13  1  0
  8 14  1  0
  9 15  1  0
 10 16  1  0
 11 17  1  0
 12 18  1  0
 15 19  1  0
 16 20  1  0
 18 21  1  0
 18 22  1  0
 19 23  2  0
 20 24  2  0
  7 11  1  0
 13 18  1  0
 15 16  2  0
 23 24  1  0
  6 25  1  0
  8 26  1  0
  9 27  1  0
 10 28  1  0
 12 29  1  0
 13 30  1  0
 13 31  1  0
 14 32  1  0
 14 33  1  0
 14 34  1  0
 17 35  1  0
 17 36  1  0
 17 37  1  0
 19 38  1  0
 20 39  1  0
 21 40  1  0
 21 41  1  0
 21 42  1  0
 22 43  1  0
 22 44  1  0
 22 45  1  0
 23 46  1  0
 24 47  1  0
M  END
> <Name>
CHEMBL436848

> <IC50 nM>
1000

> <Molecule_ChEMBL_ID>
CHEMBL436848

> <Smiles>
Cc1cc(-c2cc3ccccc3[nH]2)c(Cl)c2c1NC(C)(C)CC2C

$$$$
CHEMBL379158
  SciTegic08162514323D

 54 57  0  0  1  0            999 V2000
    1.6420    3.1680    1.0470 F   0  0
    0.2890    2.9490    1.0230 C   0  0
   -0.1290    2.5370    2.2640 F   0  0
   -0.3560    4.1110    0.6880 F   0  0
   -0.0350    1.8690   -0.0080 C   0  0  3  0  0  0
    0.5250    2.2560   -1.2420 O   0  0
    0.6460    0.6210    0.4820 C   0  0
   -1.5390    1.6740   -0.2070 C   0  0
    0.0120   -0.2810    0.9770 O   0  0
    2.0040    0.5220    0.3590 N   0  0
   -1.8870    1.1390   -1.6000 C   0  0  3  0  0  0
    2.6390   -0.5780    0.7890 C   0  0
   -3.3600    1.2190   -1.8220 C   0  0
   -1.3220   -0.2770   -1.8030 C   0  0
    3.8320   -0.4670    1.5490 C   0  0
    2.1210   -1.8670    0.4860 C   0  0
   -4.1940    0.0550   -1.7970 C   0  0
   -3.9400    2.4920   -2.0610 C   0  0
   -2.1680   -1.3030   -1.0470 C   0  0
    4.5000   -1.6350    1.9980 C   0  0
    2.7830   -3.0330    0.9360 C   0  0
   -5.5980    0.2130   -2.0060 C   0  0
   -3.6130   -1.3030   -1.5700 C   0  0
   -5.3280    2.6290   -2.2600 C   0  0
    3.9750   -2.9080    1.6910 C   0  0
    5.7580   -1.5600    2.7950 C   0  0
   -6.4770   -0.9320   -1.9920 C   0  0
   -6.1600    1.4900   -2.2310 C   0  0
    4.7210   -4.0960    2.1930 C   0  0
    6.3420   -2.6430    3.1900 N   0  0
    6.3750   -0.2340    3.1600 C   0  0
   -7.1820   -1.8530   -1.9800 N   0  0
    4.3440   -5.2250    1.9800 O   0  0
    5.8610   -3.9940    2.9140 O   0  0
    0.1010    3.0900   -1.5000 H   0  0
   -2.0760    2.6000   -0.0020 H   0  0
   -1.9470    1.0270    0.5680 H   0  0
    2.5270    1.2700   -0.0490 H   0  0
   -1.3950    1.7830   -2.3300 H   0  0
   -1.3130   -0.5290   -2.8650 H   0  0
   -0.2850   -0.3220   -1.4690 H   0  0
    4.2360    0.5080    1.7850 H   0  0
    1.2130   -1.9750   -0.0920 H   0  0
   -3.3130    3.3730   -2.0880 H   0  0
   -1.7360   -2.2990   -1.1470 H   0  0
   -2.1600   -1.0700    0.0200 H   0  0
    2.3790   -4.0060    0.6990 H   0  0
   -4.2290   -1.8690   -0.8670 H   0  0
   -3.6450   -1.8440   -2.5180 H   0  0
   -5.7560    3.6060   -2.4340 H   0  0
   -7.2250    1.6130   -2.3810 H   0  0
    7.2680   -0.3940    3.7640 H   0  0
    6.6020    0.3300    2.2560 H   0  0
    5.6740    0.3520    3.7520 H   0  0
  1  2  1  0
  2  3  1  0
  2  4  1  0
  2  5  1  0
  5  6  1  0
  5  7  1  0
  5  8  1  0
  7  9  2  0
  7 10  1  0
  8 11  1  0
 10 12  1  0
 11 13  1  0
 11 14  1  0
 12 15  2  0
 12 16  1  0
 13 17  2  0
 13 18  1  0
 14 19  1  0
 15 20  1  0
 16 21  2  0
 17 22  1  0
 17 23  1  0
 18 24  2  0
 20 25  2  0
 20 26  1  0
 22 27  1  0
 22 28  2  0
 25 29  1  0
 26 30  2  0
 26 31  1  0
 27 32  3  0
 29 33  2  0
 29 34  1  0
 19 23  1  0
 21 25  1  0
 24 28  1  0
 30 34  1  0
  6 35  1  0
  8 36  1  0
  8 37  1  0
 10 38  1  0
 11 39  1  0
 14 40  1  0
 14 41  1  0
 15 42  1  0
 16 43  1  0
 18 44  1  0
 19 45  1  0
 19 46  1  0
 21 47  1  0
 23 48  1  0
 23 49  1  0
 24 50  1  0
 28 51  1  0
 31 52  1  0
 31 53  1  0
 31 54  1  0
M  END
> <Name>
CHEMBL379158

> <IC50 nM>
15.85

> <Molecule_ChEMBL_ID>
CHEMBL379158

> <Smiles>
Cc1noc(=O)c2ccc(NC(=O)C(O)(CC3CCCc4c(C#N)cccc43)C(F)(F)F)cc12

$$$$
CHEMBL212329
  SciTegic08162514323D

 57 60  0  0  1  0            999 V2000
   -3.0290    1.5140   -2.5660 F   0  0
   -2.3480    0.3260   -2.6410 C   0  0
   -3.1880   -0.6540   -3.1020 F   0  0
   -1.2870    0.4610   -3.5020 F   0  0
   -1.8300   -0.0530   -1.2540 C   0  0  3  0  0  0
   -2.9380   -0.1560   -0.3850 O   0  0
   -0.8570    0.9550   -0.7070 C   0  0
   -1.0900   -1.3910   -1.2440 C   0  0
    0.3280    0.7230   -0.6760 O   0  0
   -1.3380    2.1460   -0.2420 N   0  0
   -0.8670   -1.9360    0.1720 C   0  0  3  0  0  0
   -0.4920    3.0640    0.2500 C   0  0
    0.4340   -2.6580    0.2420 C   0  0
   -2.0620   -2.7970    0.6190 C   0  0
   -0.6720    4.4390   -0.0570 C   0  0
    0.5880    2.6700    1.0820 C   0  0
    0.5020   -4.0840    0.3180 C   0  0
    1.6370   -1.9040    0.2250 C   0  0
   -2.0140   -4.1760   -0.0390 C   0  0
    0.2250    5.4060    0.4670 C   0  0
    1.4840    3.6330    1.6060 C   0  0
    1.7700   -4.7230    0.3650 C   0  0
   -0.7300   -4.9200    0.3650 C   0  0
    2.8930   -2.5490    0.2770 C   0  0
    1.2950    5.0000    1.2930 C   0  0
    0.0740    6.8590    0.1680 C   0  0
    1.8560   -6.0590    0.4320 O   0  0
    2.9570   -3.9570    0.3460 C   0  0
    2.2010    6.0610    1.8110 C   0  0
    0.9060    7.7150    0.6580 N   0  0
   -1.0450    7.3650   -0.7070 C   0  0
    3.1470   -6.6470    0.4100 C   0  0
    3.1430    5.8070    2.5270 O   0  0
    2.0370    7.3730    1.5200 O   0  0
   -2.5920   -0.1270    0.5220 H   0  0
   -1.6090   -2.1230   -1.8630 H   0  0
   -0.1430   -1.3090   -1.7790 H   0  0
   -2.3180    2.3340   -0.2710 H   0  0
   -0.8220   -1.0780    0.8460 H   0  0
   -3.0020   -2.2970    0.3810 H   0  0
   -2.0490   -2.9140    1.7050 H   0  0
   -1.4920    4.7520   -0.6870 H   0  0
    0.7440    1.6270    1.3260 H   0  0
    1.6000   -0.8260    0.1720 H   0  0
   -2.0550   -4.0670   -1.1250 H   0  0
   -2.8870   -4.7620    0.2440 H   0  0
    2.3010    3.3160    2.2380 H   0  0
   -0.8420   -5.2910    1.3850 H   0  0
   -0.6150   -5.7990   -0.2710 H   0  0
    3.8010   -1.9670    0.2660 H   0  0
    3.9200   -4.4490    0.3830 H   0  0
   -1.0370    8.4450   -0.8420 H   0  0
   -2.0080    7.0900   -0.2730 H   0  0
   -0.9820    6.9040   -1.6930 H   0  0
    3.0330   -7.7270    0.5200 H   0  0
    3.6620   -6.3050   -0.4860 H   0  0
    3.7030   -6.2830    1.2730 H   0  0
  1  2  1  0
  2  3  1  0
  2  4  1  0
  2  5  1  0
  5  6  1  0
  5  7  1  0
  5  8  1  0
  7  9  2  0
  7 10  1  0
  8 11  1  0
 10 12  1  0
 11 13  1  0
 11 14  1  0
 12 15  2  0
 12 16  1  0
 13 17  2  0
 13 18  1  0
 14 19  1  0
 15 20  1  0
 16 21  2  0
 17 22  1  0
 17 23  1  0
 18 24  2  0
 20 25  2  0
 20 26  1  0
 22 27  1  0
 22 28  2  0
 25 29  1  0
 26 30  2  0
 26 31  1  0
 27 32  1  0
 29 33  2  0
 29 34  1  0
 19 23  1  0
 21 25  1  0
 24 28  1  0
 30 34  1  0
  6 35  1  0
  8 36  1  0
  8 37  1  0
 10 38  1  0
 11 39  1  0
 14 40  1  0
 14 41  1  0
 15 42  1  0
 16 43  1  0
 18 44  1  0
 19 45  1  0
 19 46  1  0
 21 47  1  0
 23 48  1  0
 23 49  1  0
 24 50  1  0
 28 51  1  0
 31 52  1  0
 31 53  1  0
 31 54  1  0
 32 55  1  0
 32 56  1  0
 32 57  1  0
M  END
> <Name>
CHEMBL212329

> <IC50 nM>
12.59

> <Molecule_ChEMBL_ID>
CHEMBL212329

> <Smiles>
COc1cccc2c1CCCC2CC(O)(C(=O)Nc1ccc2c(=O)onc(C)c2c1)C(F)(F)F

$$$$
CHEMBL79807
  SciTegic08162514323D

 54 58  0  0  1  0            999 V2000
   -5.0120    6.8850   -0.3500 F   0  0
   -4.6150    5.6150   -0.3120 C   0  0
   -5.1970    4.7210    0.6040 C   0  0
   -3.6130    5.1640   -1.1910 C   0  0
   -4.7790    3.3810    0.6430 C   0  0
   -3.1930    3.8240   -1.1540 C   0  0
   -3.7750    2.9280   -0.2360 C   0  0
   -3.3710    1.6310   -0.1990 N   0  0
   -4.2090    0.5610   -0.1410 N   0  0
   -2.0800    1.2010   -0.2190 C   0  0
   -3.5510   -0.6290   -0.1050 C   0  0
   -2.2340   -0.1700   -0.1430 C   0  0
   -0.7890    1.9040   -0.2990 C   0  0
   -0.9860   -1.0390   -0.0800 C   0  0
    0.3400    1.1820   -0.4800 C   0  0
    0.3030   -0.3480   -0.6500 C   0  0  1  0  0  0
    1.6740    1.9000   -0.5590 C   0  0
    1.5410   -1.0210    0.0060 C   0  0  1  0  0  0
    0.3440   -0.5740   -2.1680 C   0  0
    2.8220    1.1450    0.1130 C   0  0
    1.6290   -2.5180   -0.3260 C   0  0  1  0  0  0
    2.8610   -0.3160   -0.3360 C   0  0
    2.2990   -2.6560   -1.5590 O   0  0
    2.3650   -3.2700    0.7250 C   0  0
    3.7680   -3.3630    0.6700 C   0  0
    1.6600   -3.8870    1.7740 C   0  0
    4.4630   -4.0740    1.6640 C   0  0
    2.3560   -4.5960    2.7680 C   0  0
    3.7580   -4.6910    2.7130 C   0  0
    4.4160   -5.3630    3.6540 F   0  0
   -5.9670    5.0630    1.2810 H   0  0
   -3.1640    5.8480   -1.8960 H   0  0
   -5.2380    2.7090    1.3560 H   0  0
   -2.4220    3.4980   -1.8380 H   0  0
   -3.9730   -1.6230   -0.0570 H   0  0
   -0.7520    2.9810   -0.2250 H   0  0
   -1.1720   -1.9860   -0.5860 H   0  0
   -0.8440   -1.2850    0.9730 H   0  0
    1.9160    2.0530   -1.6110 H   0  0
    1.6000    2.8970   -0.1190 H   0  0
    1.4240   -0.9510    1.0880 H   0  0
   -0.4590   -0.0230   -2.6620 H   0  0
    1.3010   -0.2520   -2.5800 H   0  0
    0.2170   -1.6310   -2.4060 H   0  0
    2.7070    1.1880    1.1970 H   0  0
    3.7720    1.6310   -0.1150 H   0  0
    0.6270   -2.9340   -0.4360 H   0  0
    3.0530   -0.3710   -1.4080 H   0  0
    3.6930   -0.8240    0.1540 H   0  0
    2.2360   -3.5920   -1.8140 H   0  0
    4.3170   -2.8930   -0.1310 H   0  0
    0.5840   -3.8160    1.8200 H   0  0
    5.5410   -4.1450    1.6190 H   0  0
    1.8090   -5.0680    3.5700 H   0  0
  1  2  1  0
  2  3  2  0
  2  4  1  0
  3  5  1  0
  4  6  2  0
  5  7  2  0
  7  8  1  0
  8  9  1  0
  8 10  1  0
  9 11  2  0
 10 12  2  0
 10 13  1  0
 12 14  1  0
 13 15  2  0
 14 16  1  0
 15 17  1  0
 16 18  1  0
 16 19  1  0
 17 20  1  0
 18 21  1  0
 18 22  1  0
 21 23  1  0
 21 24  1  0
 24 25  2  0
 24 26  1  0
 25 27  1  0
 26 28  2  0
 27 29  2  0
 29 30  1  0
  6  7  1  0
 11 12  1  0
 15 16  1  0
 20 22  1  0
 28 29  1  0
  3 31  1  0
  4 32  1  0
  5 33  1  0
  6 34  1  0
 11 35  1  0
 13 36  1  0
 14 37  1  0
 14 38  1  0
 17 39  1  0
 17 40  1  0
 18 41  1  0
 19 42  1  0
 19 43  1  0
 19 44  1  0
 20 45  1  0
 20 46  1  0
 21 47  1  0
 22 48  1  0
 22 49  1  0
 23 50  1  0
 25 51  1  0
 26 52  1  0
 27 53  1  0
 28 54  1  0
M  END
> <Name>
CHEMBL79807

> <IC50 nM>
6.2

> <Molecule_ChEMBL_ID>
CHEMBL79807

> <Smiles>
C[C@]12Cc3cnn(-c4ccc(F)cc4)c3C=C1CCC[C@@H]2[C@@H](O)c1ccc(F)cc1

$$$$
CHEMBL1083885
  SciTegic08162514323D

 36 39  0  0  0  0            999 V2000
    4.5100    5.8030   -0.6170 F   0  0
    4.0220    4.5680   -0.5210 C   0  0
    2.9750    4.2930    0.3750 C   0  0
    4.5550    3.5390   -1.3160 C   0  0
    2.4590    2.9900    0.4770 C   0  0
    4.0410    2.2340   -1.2170 C   0  0
    2.9900    1.9570   -0.3200 C   0  0
    2.4920    0.6950   -0.2230 N   0  0
    3.2420   -0.4590   -0.1990 N   0  0
    1.1860    0.3420   -0.1310 C   0  0
    2.5120   -1.6250   -0.0940 C   0  0
    1.2580   -1.0350   -0.0590 C   0  0
   -0.0350    1.0510   -0.1050 C   0  0
    0.0610   -1.7910    0.0490 C   0  0
   -1.2340    0.3030    0.0020 C   0  0
   -1.1930   -1.1190    0.0800 C   0  0
   -2.4280   -1.8810    0.1910 C   0  0
   -3.4670   -1.4240    1.0250 C   0  0
   -2.5860   -3.0760   -0.5370 C   0  0
   -4.6600   -2.1580    1.1330 C   0  0
   -3.7810   -3.8090   -0.4280 C   0  0
   -5.6330   -1.7300    1.9140 O   0  0
   -4.8150   -3.3520    0.4060 C   0  0
    2.5640    5.0820    0.9880 H   0  0
    5.3590    3.7460   -2.0080 H   0  0
    1.6540    2.7970    1.1720 H   0  0
    4.4630    1.4570   -1.8380 H   0  0
    2.8610   -2.6480   -0.0570 H   0  0
   -0.0610    2.1290   -0.1640 H   0  0
    0.1040   -2.8690    0.1070 H   0  0
   -2.1780    0.8260    0.0230 H   0  0
   -3.3570   -0.5080    1.5900 H   0  0
   -1.7990   -3.4390   -1.1820 H   0  0
   -3.9020   -4.7270   -0.9860 H   0  0
   -6.4470   -2.2460    1.9810 H   0  0
   -5.7310   -3.9180    0.4860 H   0  0
  1  2  1  0
  2  3  2  0
  2  4  1  0
  3  5  1  0
  4  6  2  0
  5  7  2  0
  7  8  1  0
  8  9  1  0
  8 10  1  0
  9 11  2  0
 10 12  1  0
 10 13  2  0
 12 14  2  0
 13 15  1  0
 14 16  1  0
 16 17  1  0
 17 18  2  0
 17 19  1  0
 18 20  1  0
 19 21  2  0
 20 22  1  0
 20 23  2  0
  6  7  1  0
 11 12  1  0
 15 16  2  0
 21 23  1  0
  3 24  1  0
  4 25  1  0
  5 26  1  0
  6 27  1  0
 11 28  1  0
 13 29  1  0
 14 30  1  0
 15 31  1  0
 18 32  1  0
 19 33  1  0
 21 34  1  0
 22 35  1  0
 23 36  1  0
M  END
> <Name>
CHEMBL1083885

> <IC50 nM>
10000

> <Molecule_ChEMBL_ID>
CHEMBL1083885

> <Smiles>
Oc1cccc(-c2ccc3c(cnn3-c3ccc(F)cc3)c2)c1

$$$$
CHEMBL313062
  SciTegic08162514323D

 58 62  0  0  1  0            999 V2000
    5.4040   -4.3830    3.1560 F   0  0
    4.4880   -3.8560    2.3480 C   0  0
    4.8750   -3.2870    1.1190 C   0  0
    3.1310   -3.8630    2.7250 C   0  0
    6.1560   -3.2720    0.7600 F   0  0
    3.9060   -2.7310    0.2680 C   0  0
    2.7620   -4.3950    3.8730 O   0  0
    2.1660   -3.3050    1.8670 C   0  0
    2.5510   -2.7380    0.6410 C   0  0
    1.3960   -4.2830    4.2520 C   0  0
    1.5250   -2.1510   -0.2600 C   0  0  2  0  0  0
    1.8750   -2.4080   -1.6020 O   0  0
    1.4180   -0.6290   -0.0760 C   0  0  2  0  0  0
    0.1660   -0.0310   -0.7700 C   0  0  2  0  0  0
    2.7380    0.0600   -0.4920 C   0  0
    0.0960    1.4730   -0.4530 C   0  0
   -1.1190   -0.8110   -0.3280 C   0  0
    0.3060   -0.1620   -2.2930 C   0  0
    2.5760    1.5410   -0.8790 C   0  0
   -1.0840    2.1330   -0.4340 C   0  0
    1.3890    2.2130   -0.1800 C   0  0
   -2.4010   -0.0270   -0.5800 C   0  0
   -2.3260    1.3550   -0.6000 C   0  0
   -3.6700   -0.5670   -0.7770 C   0  0
   -3.6250    1.7050   -0.7950 N   0  0
   -4.3870    0.5840   -0.9020 N   0  0
   -4.1020    2.9750   -0.8750 C   0  0
   -5.2800    3.3320   -0.1880 C   0  0
   -3.4220    3.9370   -1.6450 C   0  0
   -5.7720    4.6460   -0.2720 C   0  0
   -3.9160    5.2500   -1.7270 C   0  0
   -5.0920    5.6050   -1.0410 C   0  0
   -5.5590    6.8500   -1.1190 F   0  0
    4.2030   -2.2950   -0.6760 H   0  0
    1.1250   -3.3150    2.1560 H   0  0
    1.2650   -4.7910    5.2050 H   0  0
    1.1190   -3.2290    4.2250 H   0  0
    0.7950   -4.8050    3.5080 H   0  0
    0.5600   -2.6150   -0.0660 H   0  0
    1.8220   -3.3670   -1.7310 H   0  0
    1.2950   -0.4570    0.9940 H   0  0
    3.4510   -0.0250    0.3300 H   0  0
    3.1910   -0.4650   -1.3340 H   0  0
   -1.1740   -1.7810   -0.8240 H   0  0
   -1.0760   -1.0180    0.7420 H   0  0
    1.3320    0.0100   -2.6230 H   0  0
   -0.3320    0.5590   -2.8030 H   0  0
    0.0140   -1.1580   -2.6230 H   0  0
    3.4980    2.0840   -0.6700 H   0  0
    2.4260    1.6110   -1.9570 H   0  0
   -1.1210    3.2050   -0.2990 H   0  0
    1.3060    3.2460   -0.5160 H   0  0
    1.5600    2.2440    0.8960 H   0  0
   -4.0280   -1.5860   -0.8240 H   0  0
   -5.8170    2.6070    0.4100 H   0  0
   -2.5180    3.6840   -2.1800 H   0  0
   -6.6740    4.9140    0.2580 H   0  0
   -3.3910    5.9840   -2.3200 H   0  0
  1  2  1  0
  2  3  2  0
  2  4  1  0
  3  5  1  0
  3  6  1  0
  4  7  1  0
  4  8  2  0
  6  9  2  0
  7 10  1  0
  9 11  1  0
 11 12  1  0
 11 13  1  0
 13 14  1  0
 13 15  1  0
 14 16  1  0
 14 17  1  0
 14 18  1  0
 15 19  1  0
 16 20  2  0
 16 21  1  0
 17 22  1  0
 20 23  1  0
 22 24  1  0
 23 25  1  0
 24 26  2  0
 25 27  1  0
 27 28  2  0
 27 29  1  0
 28 30  1  0
 29 31  2  0
 30 32  2  0
 32 33  1  0
  8  9  1  0
 19 21  1  0
 22 23  2  0
 25 26  1  0
 31 32  1  0
  6 34  1  0
  8 35  1  0
 10 36  1  0
 10 37  1  0
 10 38  1  0
 11 39  1  0
 12 40  1  0
 13 41  1  0
 15 42  1  0
 15 43  1  0
 17 44  1  0
 17 45  1  0
 18 46  1  0
 18 47  1  0
 18 48  1  0
 19 49  1  0
 19 50  1  0
 20 51  1  0
 21 52  1  0
 21 53  1  0
 24 54  1  0
 28 55  1  0
 29 56  1  0
 30 57  1  0
 31 58  1  0
M  END
> <Name>
CHEMBL313062

> <IC50 nM>
1.9

> <Molecule_ChEMBL_ID>
CHEMBL313062

> <Smiles>
COc1cc([C@H](O)[C@H]2CCCC3=Cc4c(cnn4-c4ccc(F)cc4)C[C@@]32C)cc(F)c1F

$$$$
CHEMBL380695
  SciTegic08162514323D

 46 48  0  0  0  0            999 V2000
   -0.9550   -2.1150    1.2810 S   0  0
   -1.3120   -1.6520   -0.4370 C   0  0
   -0.6390   -3.8850    1.0310 C   0  0
   -1.6190   -0.1760   -0.5080 C   0  0
   -0.3070   -4.5270    2.3520 C   0  0
   -0.5330    0.8480   -0.4570 C   0  0
   -2.9040    0.2170   -0.6170 C   0  0
   -0.4610   -5.8550    2.4750 C   0  0
   -0.8670    2.2310   -0.5270 C   0  0
    0.8220    0.4470   -0.3380 C   0  0
   -3.3070    1.6800   -0.6950 C   0  0
   -2.1580    2.6330   -0.6430 N   0  0
    0.1740    3.1960   -0.4770 C   0  0
    1.8560    1.4160   -0.2890 C   0  0
   -4.0590    1.8990   -2.0100 C   0  0
   -4.2400    1.9790    0.4810 C   0  0
    1.5240    2.7890   -0.3590 C   0  0
    3.2460    1.0020   -0.1680 C   0  0
    3.5980   -0.0390    0.7150 C   0  0
    4.2400    1.6390   -0.9320 C   0  0
    4.9400   -0.4370    0.8320 C   0  0
    5.5820    1.2380   -0.8120 C   0  0
    5.9320    0.2010    0.0680 C   0  0
   -0.4490   -1.8810   -1.0620 H   0  0
   -2.1660   -2.2260   -0.7970 H   0  0
    0.1930   -4.0100    0.3380 H   0  0
   -1.5230   -4.3550    0.6020 H   0  0
    0.0530   -4.0190    3.2340 H   0  0
   -3.6800   -0.5330   -0.6540 H   0  0
   -0.2930   -6.4490    3.3610 H   0  0
   -0.7890   -6.3670    1.5820 H   0  0
    1.0740   -0.6030   -0.2850 H   0  0
   -2.3730    3.6100   -0.6930 H   0  0
   -0.0490    4.2520   -0.5290 H   0  0
   -3.4300    1.6960   -2.8770 H   0  0
   -4.4100    2.9280   -2.0860 H   0  0
   -4.9280    1.2440   -2.0680 H   0  0
   -3.7270    1.8210    1.4300 H   0  0
   -4.5960    3.0080    0.4380 H   0  0
   -5.1090    1.3240    0.4590 H   0  0
    2.2950    3.5450   -0.3220 H   0  0
    2.8460   -0.5390    1.3110 H   0  0
    3.9880    2.4400   -1.6130 H   0  0
    5.2090   -1.2340    1.5100 H   0  0
    6.3460    1.7290   -1.4000 H   0  0
    6.9650   -0.1070    0.1580 H   0  0
  1  2  1  0
  1  3  1  0
  2  4  1  0
  3  5  1  0
  4  6  1  0
  4  7  2  0
  5  8  2  0
  6  9  2  0
  6 10  1  0
  7 11  1  0
  9 12  1  0
  9 13  1  0
 10 14  2  0
 11 15  1  0
 11 16  1  0
 13 17  2  0
 14 18  1  0
 18 19  2  0
 18 20  1  0
 19 21  1  0
 20 22  2  0
 21 23  2  0
 11 12  1  0
 14 17  1  0
 22 23  1  0
  2 24  1  0
  2 25  1  0
  3 26  1  0
  3 27  1  0
  5 28  1  0
  7 29  1  0
  8 30  1  0
  8 31  1  0
 10 32  1  0
 12 33  1  0
 13 34  1  0
 15 35  1  0
 15 36  1  0
 15 37  1  0
 16 38  1  0
 16 39  1  0
 16 40  1  0
 17 41  1  0
 19 42  1  0
 20 43  1  0
 21 44  1  0
 22 45  1  0
 23 46  1  0
M  END
> <Name>
CHEMBL380695

> <IC50 nM>
2000

> <Molecule_ChEMBL_ID>
CHEMBL380695

> <Smiles>
C=CCSCC1=CC(C)(C)Nc2ccc(-c3ccccc3)cc21

$$$$
CHEMBL193798
  SciTegic08162514323D

 66 72  0  0  1  0            999 V2000
   -5.1740    7.1540   -2.9820 F   0  0
   -4.8210    6.0470   -2.3360 C   0  0
   -3.7330    5.2830   -2.7910 C   0  0
   -5.5370    5.6390   -1.1970 C   0  0
   -3.3580    4.1110   -2.1090 C   0  0
   -5.1660    4.4690   -0.5140 C   0  0
   -4.0740    3.7010   -0.9670 C   0  0
   -3.7150    2.5700   -0.3090 N   0  0
   -4.5840    1.6270    0.1450 N   0  0
   -2.4440    2.1990   -0.0020 C   0  0
   -3.9690    0.5880    0.7750 C   0  0
   -2.6430    1.0000    0.6600 C   0  0
   -1.1210    2.8130   -0.2380 C   0  0
   -1.4140    0.2710    1.1990 C   0  0
   -0.0200    2.0680    0.0160 C   0  0
   -0.1250    0.5740    0.3580 C   0  0  1  0  0  0
    1.3630    2.6760   -0.0190 C   0  0
    1.1740    0.1070    1.1130 C   0  0
   -0.2660   -0.1640   -0.9900 C   0  0
    2.1000    2.4810    1.3200 C   0  0
    2.2150   -0.2660    0.2110 O   0  0
    0.9630   -1.0940    1.8400 O   0  0
    1.7110    1.1880    2.0700 C   0  0
    2.4590   -1.6600    0.2540 C   0  0  1  0  0  0
    1.2500   -2.1990    1.0220 C   0  0  1  0  0  0
    2.5960   -2.2050   -1.1250 C   0  0
    1.5270   -3.4020    1.8500 C   0  0
    3.3120   -1.4860   -2.0980 C   0  0
    2.0080   -3.4400   -1.4550 C   0  0
    2.5960   -3.3970    2.7660 C   0  0
    0.7230   -4.5490    1.7190 C   0  0
    3.4410   -2.0000   -3.4000 C   0  0
    2.1390   -3.9530   -2.7580 C   0  0
    2.8570   -4.5350    3.5490 C   0  0
    0.9840   -5.6860    2.5020 C   0  0
    2.8530   -3.2340   -3.7280 C   0  0
    2.0530   -5.6800    3.4160 C   0  0
   -3.1800    5.5940   -3.6660 H   0  0
   -6.3750    6.2230   -0.8440 H   0  0
   -2.5180    3.5390   -2.4750 H   0  0
   -5.7290    4.1700    0.3610 H   0  0
   -4.4300   -0.2850    1.2230 H   0  0
   -1.0390    3.8300   -0.5960 H   0  0
   -1.6150   -0.8010    1.2340 H   0  0
   -1.2660    0.5920    2.2310 H   0  0
    1.9260    2.1970   -0.8220 H   0  0
    1.3200    3.7360   -0.2710 H   0  0
   -1.0680    0.2700   -1.5860 H   0  0
    0.6660   -0.1110   -1.5570 H   0  0
   -0.4980   -1.2170   -0.8320 H   0  0
    3.1720    2.4840    1.1270 H   0  0
    1.9180    3.3340    1.9730 H   0  0
    0.9390    1.4260    2.8050 H   0  0
    2.5660    0.8260    2.6430 H   0  0
    3.3850   -1.8070    0.7950 H   0  0
    0.3940   -2.3770    0.3850 H   0  0
    3.7660   -0.5370   -1.8520 H   0  0
    1.4570   -3.9980   -0.7130 H   0  0
    3.2190   -2.5200    2.8710 H   0  0
   -0.1000   -4.5610    1.0180 H   0  0
    3.9920   -1.4470   -4.1460 H   0  0
    1.6870   -4.9000   -3.0120 H   0  0
    3.6780   -4.5290    4.2500 H   0  0
    0.3670   -6.5670    2.4010 H   0  0
    2.9530   -3.6290   -4.7300 H   0  0
    2.2540   -6.5530    4.0180 H   0  0
  1  2  1  0
  2  3  2  0
  2  4  1  0
  3  5  1  0
  4  6  2  0
  5  7  2  0
  7  8  1  0
  8  9  1  0
  8 10  1  0
  9 11  2  0
 10 12  2  0
 10 13  1  0
 12 14  1  0
 13 15  2  0
 14 16  1  0
 15 17  1  0
 16 18  1  0
 16 19  1  0
 17 20  1  0
 18 21  1  0
 18 22  1  0
 18 23  1  0
 21 24  1  0
 22 25  1  0
 24 26  1  0
 25 27  1  0
 26 28  2  0
 26 29  1  0
 27 30  2  0
 27 31  1  0
 28 32  1  0
 29 33  2  0
 30 34  1  0
 31 35  2  0
 32 36  2  0
 34 37  2  0
  6  7  1  0
 11 12  1  0
 15 16  1  0
 20 23  1  0
 24 25  1  0
 33 36  1  0
 35 37  1  0
  3 38  1  0
  4 39  1  0
  5 40  1  0
  6 41  1  0
 11 42  1  0
 13 43  1  0
 14 44  1  0
 14 45  1  0
 17 46  1  0
 17 47  1  0
 19 48  1  0
 19 49  1  0
 19 50  1  0
 20 51  1  0
 20 52  1  0
 23 53  1  0
 23 54  1  0
 24 55  1  0
 25 56  1  0
 28 57  1  0
 29 58  1  0
 30 59  1  0
 31 60  1  0
 32 61  1  0
 33 62  1  0
 34 63  1  0
 35 64  1  0
 36 65  1  0
 37 66  1  0
M  END
> <Name>
CHEMBL193798

> <IC50 nM>
10

> <Molecule_ChEMBL_ID>
CHEMBL193798

> <Smiles>
C[C@]12Cc3cnn(-c4ccc(F)cc4)c3C=C1CCCC21O[C@H](c2ccccc2)[C@@H](c2ccccc2)O1

$$$$
CHEMBL306697
  SciTegic08162514323D

 51 53  0  0  0  0            999 V2000
    1.0740   -4.4840   -1.8530 S   0  0
   -0.2210   -5.0310   -2.2210 O   0  0
    1.4020   -3.2620   -2.5640 O   0  0
    1.0230   -4.1310   -0.2730 N   0  0
    2.3340   -5.7070   -2.1930 C   0  0
    0.9770   -2.8200    0.1350 C   0  0
   -0.0760   -1.9630   -0.2680 C   0  0
    1.9980   -2.3320    0.9710 C   0  0
   -0.0880   -0.6170    0.1740 C   0  0
   -1.1660   -2.4730   -1.1540 C   0  0
    1.9800   -0.9980    1.4040 C   0  0
   -1.0900    0.2440   -0.1950 N   0  0
    0.9410   -0.1450    1.0100 C   0  0
   -1.1640    0.7790   -1.5620 C   0  0
   -2.1110    0.6460    0.7830 C   0  0
   -0.5920    2.1480   -1.6460 C   0  0
   -1.5100    1.3520    1.9450 C   0  0
    0.8030    2.3320   -1.6020 C   0  0
   -1.4420    3.2600   -1.7710 C   0  0
   -1.1950    2.7210    1.8520 C   0  0
   -1.2520    0.6520    3.1370 C   0  0
    1.3440    3.6270   -1.6820 C   0  0
   -0.9000    4.5550   -1.8520 C   0  0
   -0.6250    3.3870    2.9490 C   0  0
   -0.6820    1.3200    4.2350 C   0  0
    2.6640    3.8010   -1.6390 F   0  0
    0.4920    4.7380   -1.8050 C   0  0
   -0.3690    2.6880    4.1410 C   0  0
    1.0250   -4.8650    0.4040 H   0  0
    2.4160   -5.9860   -3.2440 H   0  0
    2.1270   -6.6130   -1.6230 H   0  0
    3.3050   -5.3280   -1.8730 H   0  0
    2.8110   -2.9730    1.2870 H   0  0
   -1.3990   -3.5040   -0.8890 H   0  0
   -2.0310   -1.8140   -1.0840 H   0  0
   -0.8260   -2.4650   -2.1910 H   0  0
    2.7680   -0.6310    2.0450 H   0  0
    0.9470    0.8810    1.3580 H   0  0
   -2.2050    0.8010   -1.8830 H   0  0
   -0.6210    0.1150   -2.2360 H   0  0
   -2.6430   -0.2380    1.1330 H   0  0
   -2.8360    1.3010    0.2970 H   0  0
    1.4590    1.4790   -1.5060 H   0  0
   -2.5140    3.1250   -1.8070 H   0  0
   -1.3910    3.2640    0.9400 H   0  0
   -1.4900   -0.3980    3.2150 H   0  0
   -1.5550    5.4080   -1.9470 H   0  0
   -0.3850    4.4380    2.8790 H   0  0
   -0.4840    0.7830    5.1510 H   0  0
    0.9040    5.7340   -1.8670 H   0  0
    0.0700    3.2010    4.9860 H   0  0
  1  2  2  0
  1  3  2  0
  1  4  1  0
  1  5  1  0
  4  6  1  0
  6  7  2  0
  6  8  1  0
  7  9  1  0
  7 10  1  0
  8 11  2  0
  9 12  1  0
  9 13  2  0
 12 14  1  0
 12 15  1  0
 14 16  1  0
 15 17  1  0
 16 18  2  0
 16 19  1  0
 17 20  2  0
 17 21  1  0
 18 22  1  0
 19 23  2  0
 20 24  1  0
 21 25  2  0
 22 26  1  0
 22 27  2  0
 24 28  2  0
 11 13  1  0
 23 27  1  0
 25 28  1  0
  4 29  1  0
  5 30  1  0
  5 31  1  0
  5 32  1  0
  8 33  1  0
 10 34  1  0
 10 35  1  0
 10 36  1  0
 11 37  1  0
 13 38  1  0
 14 39  1  0
 14 40  1  0
 15 41  1  0
 15 42  1  0
 18 43  1  0
 19 44  1  0
 20 45  1  0
 21 46  1  0
 23 47  1  0
 24 48  1  0
 25 49  1  0
 27 50  1  0
 28 51  1  0
M  END
> <Name>
CHEMBL306697

> <IC50 nM>
42

> <Molecule_ChEMBL_ID>
CHEMBL306697

> <Smiles>
Cc1c(NS(C)(=O)=O)cccc1N(Cc1ccccc1)Cc1cccc(F)c1

$$$$
CHEMBL183914
  SciTegic08162514323D

 84 87  0  0  0  0            999 V2000
   -2.2620    3.9900   -2.0630 S   0  0
   -2.8590    3.1860   -1.0100 O   0  0
   -2.4750    5.4160   -1.8850 O   0  0
   -0.6640    3.7290   -2.0250 N   0  0
   -2.9570    3.4940   -3.6330 C   0  0
   -0.1620    2.4900   -2.3460 C   0  0
    1.2170    2.2990   -2.5960 C   0  0
   -1.0490    1.4000   -2.4200 C   0  0
    1.6950    1.0060   -2.9220 C   0  0
    2.1640    3.4530   -2.5180 C   0  0
   -0.5700    0.1210   -2.7440 C   0  0
    3.0250    0.7810   -3.1720 N   0  0
    0.7970   -0.0760   -2.9940 C   0  0
    4.0250    0.8950   -2.1020 C   0  0
    3.4670    0.4180   -4.5270 C   0  0
    3.5800    0.2110   -0.8610 C   0  0
    4.2560   -0.8400   -4.5270 C   0  0
    3.1580    0.9670    0.2460 C   0  0
    3.5780   -1.1930   -0.7930 C   0  0
    3.6000   -2.0840   -4.5270 C   0  0
    5.6620   -0.7910   -4.5270 C   0  0
    2.7360    0.3180    1.4200 C   0  0
    3.1560   -1.8400    0.3830 C   0  0
    4.3460   -3.2750   -4.5270 C   0  0
    6.4080   -1.9820   -4.5270 C   0  0
    2.7340   -1.0860    1.4920 C   0  0
    5.7500   -3.2250   -4.5270 C   0  0
    2.3380   -1.6910    2.5940 O   0  0
    1.3070   -1.1880    3.2420 C   0  0
    0.2090   -0.6720    2.5310 C   0  0
    1.3010   -1.1600    4.6470 C   0  0
   -0.8910   -0.1330    3.2210 C   0  0
    0.2030   -0.6210    5.3400 C   0  0
   -0.8950   -0.1070    4.6250 C   0  0
   -2.0570    0.4630    5.3580 C   0  0
   -2.6950   -0.5680    6.2870 C   0  0
   -3.2230   -1.7930    5.5390 C   0  0
   -4.4880   -1.5000    4.7770 C   0  0
   -5.5720   -1.6780    5.2810 O   0  0
   -4.3910   -1.0250    3.5000 N   0  0
   -5.6150   -0.7340    2.7420 C   0  0
   -6.2400   -2.0180    2.1950 C   0  0
   -7.4830   -1.7540    1.3870 C   0  0
   -8.5780   -1.8300    1.8890 O   0  0
   -7.2720   -1.4390    0.1110 O   0  0
   -0.0410    4.4690   -1.7720 H   0  0
   -2.2210    3.3550   -4.4260 H   0  0
   -3.6700    4.2460   -3.9690 H   0  0
   -3.4960    2.5550   -3.5120 H   0  0
   -2.1060    1.5270   -2.2320 H   0  0
    2.4180    3.6450   -1.4750 H   0  0
    3.0410    3.2480   -3.1330 H   0  0
    1.6820    4.3480   -2.9140 H   0  0
   -1.2540   -0.7130   -2.8010 H   0  0
    1.1430   -1.0700   -3.2420 H   0  0
    4.2090    1.9470   -1.8930 H   0  0
    4.9650    0.4550   -2.4410 H   0  0
    4.0740    1.2290   -4.9340 H   0  0
    2.5940    0.3010   -5.1700 H   0  0
    3.1580    2.0470    0.2010 H   0  0
    3.9000   -1.7810   -1.6410 H   0  0
    2.5190   -2.1290   -4.5270 H   0  0
    6.1740    0.1600   -4.5270 H   0  0
    2.4140    0.9040    2.2700 H   0  0
    3.1560   -2.9180    0.4320 H   0  0
    3.8400   -4.2290   -4.5270 H   0  0
    7.4880   -1.9430   -4.5270 H   0  0
    6.3240   -4.1390   -4.5270 H   0  0
    0.2070   -0.6890    1.4510 H   0  0
    2.1430   -1.5530    5.1990 H   0  0
   -1.7310    0.2600    2.6660 H   0  0
    0.2070   -0.6040    6.4200 H   0  0
   -2.7870    0.8400    4.6410 H   0  0
   -1.7380    1.3420    5.9160 H   0  0
   -3.4860   -0.1110    6.8830 H   0  0
   -1.9980   -0.8670    7.0700 H   0  0
   -3.4160   -2.5510    6.2990 H   0  0
   -2.4650   -2.1860    4.8590 H   0  0
   -3.4880   -0.8810    3.0920 H   0  0
   -5.3810   -0.0450    1.9320 H   0  0
   -6.3200   -0.2090    3.3870 H   0  0
   -6.4860   -2.6270    3.0640 H   0  0
   -5.5180   -2.5720    1.5940 H   0  0
   -6.3650   -1.3910   -0.2190 H   0  0
  1  2  2  0
  1  3  2  0
  1  4  1  0
  1  5  1  0
  4  6  1  0
  6  7  2  0
  6  8  1  0
  7  9  1  0
  7 10  1  0
  8 11  2  0
  9 12  1  0
  9 13  2  0
 12 14  1  0
 12 15  1  0
 14 16  1  0
 15 17  1  0
 16 18  2  0
 16 19  1  0
 17 20  2  0
 17 21  1  0
 18 22  1  0
 19 23  2  0
 20 24  1  0
 21 25  2  0
 22 26  2  0
 24 27  2  0
 26 28  1  0
 28 29  1  0
 29 30  2  0
 29 31  1  0
 30 32  1  0
 31 33  2  0
 32 34  2  0
 34 35  1  0
 35 36  1  0
 36 37  1  0
 37 38  1  0
 38 39  2  0
 38 40  1  0
 40 41  1  0
 41 42  1  0
 42 43  1  0
 43 44  2  0
 43 45  1  0
 11 13  1  0
 23 26  1  0
 25 27  1  0
 33 34  1  0
  4 46  1  0
  5 47  1  0
  5 48  1  0
  5 49  1  0
  8 50  1  0
 10 51  1  0
 10 52  1  0
 10 53  1  0
 11 54  1  0
 13 55  1  0
 14 56  1  0
 14 57  1  0
 15 58  1  0
 15 59  1  0
 18 60  1  0
 19 61  1  0
 20 62  1  0
 21 63  1  0
 22 64  1  0
 23 65  1  0
 24 66  1  0
 25 67  1  0
 27 68  1  0
 30 69  1  0
 31 70  1  0
 32 71  1  0
 33 72  1  0
 35 73  1  0
 35 74  1  0
 36 75  1  0
 36 76  1  0
 37 77  1  0
 37 78  1  0
 40 79  1  0
 41 80  1  0
 41 81  1  0
 42 82  1  0
 42 83  1  0
 45 84  1  0
M  END
> <Name>
CHEMBL183914

> <IC50 nM>
1.5

> <Molecule_ChEMBL_ID>
CHEMBL183914

> <Smiles>
Cc1c(NS(C)(=O)=O)cccc1N(Cc1ccccc1)Cc1ccc(Oc2ccc(CCCC(=O)NCCC(=O)O)cc2)cc1

$$$$
CHEMBL360746
  SciTegic08162514323D

 87 90  0  0  0  0            999 V2000
    1.1230    7.1780   -0.6170 S   0  0
    1.8790    7.0100    0.6130 O   0  0
    1.8420    6.7250   -1.7950 O   0  0
   -0.2190    6.2810   -0.4900 N   0  0
    0.7210    8.9080   -0.8160 C   0  0
   -0.1390    4.9800   -0.0570 C   0  0
   -0.7480    4.5720    1.1540 C   0  0
    0.5680    4.0470   -0.8380 C   0  0
   -0.6430    3.2230    1.5680 C   0  0
   -1.5000    5.5590    1.9900 C   0  0
    0.6700    2.7110   -0.4220 C   0  0
   -1.2210    2.7870    2.7350 N   0  0
    0.0660    2.2990    0.7770 C   0  0
   -2.6480    2.4450    2.7910 C   0  0
   -0.4080    2.6580    3.9530 C   0  0
   -3.1110    1.8220    1.5240 C   0  0
    0.3810    1.3980    3.9530 C   0  0
   -3.9610    2.5350    0.6580 C   0  0
   -2.7030    0.5190    1.1900 C   0  0
   -0.2770    0.1540    3.9530 C   0  0
    1.7870    1.4470    3.9530 C   0  0
   -4.3970    1.9430   -0.5410 C   0  0
   -3.1410   -0.0680   -0.0100 C   0  0
    0.4710   -1.0350    3.9530 C   0  0
    2.5330    0.2580    3.9530 C   0  0
   -3.9900    0.6410   -0.8770 C   0  0
    1.8750   -0.9850    3.9530 C   0  0
   -4.4000    0.0880   -2.0020 O   0  0
   -3.5470   -0.6600   -2.6700 C   0  0
   -2.1880   -0.3050   -2.7270 C   0  0
   -3.9900   -1.8190   -3.3340 C   0  0
   -1.2750   -1.1040   -3.4390 C   0  0
   -3.0820   -2.6170   -4.0470 C   0  0
   -1.7230   -2.2600   -4.1020 C   0  0
   -0.7600   -3.1040   -4.8550 C   0  0
   -0.3140   -4.3190   -4.0390 C   0  0
    0.5530   -3.9360   -2.8400 C   0  0
    1.2790   -5.1170   -2.2580 C   0  0
    1.1410   -6.2250   -2.7230 O   0  0
    2.1060   -4.9180   -1.1870 N   0  0
    2.8240   -6.0610   -0.6070 C   0  0
    3.6880   -5.6210    0.5760 C   0  0
    4.3930   -6.7930    1.2600 C   0  0
    5.3480   -7.5040    0.3400 C   0  0
    5.0290   -8.5280   -0.2210 O   0  0
    6.5390   -6.9260    0.2030 O   0  0
   -1.1070    6.6740   -0.7280 H   0  0
    1.5470    9.5880   -0.6090 H   0  0
   -0.1020    9.1700   -0.1500 H   0  0
    0.3910    9.0900   -1.8400 H   0  0
    1.0410    4.3420   -1.7640 H   0  0
   -1.7460    6.4320    1.3870 H   0  0
   -2.3810    5.0780    2.4140 H   0  0
   -0.8710    5.8910    2.8150 H   0  0
    1.2130    1.9980   -1.0230 H   0  0
    0.1580    1.2640    1.0780 H   0  0
   -3.2270    3.3500    2.9830 H   0  0
   -2.8200    1.7580    3.6190 H   0  0
   -1.0620    2.6760    4.8240 H   0  0
    0.2680    3.5100    4.0270 H   0  0
   -4.2790    3.5350    0.9080 H   0  0
   -2.0510   -0.0330    1.8500 H   0  0
   -1.3550    0.1090    3.9530 H   0  0
    2.2990    2.4000    3.9530 H   0  0
   -5.0490    2.4940   -1.2030 H   0  0
   -2.8240   -1.0700   -0.2620 H   0  0
   -0.0350   -1.9900    3.9530 H   0  0
    3.6130    0.2970    3.9530 H   0  0
    2.4490   -1.9010    3.9530 H   0  0
   -1.8400    0.5820   -2.2190 H   0  0
   -5.0330   -2.0980   -3.2950 H   0  0
   -0.2320   -0.8220   -3.4770 H   0  0
   -3.4320   -3.5060   -4.5530 H   0  0
    0.0980   -2.5020   -5.1500 H   0  0
   -1.2130   -3.4180   -5.7970 H   0  0
    0.1990   -5.0410   -4.6720 H   0  0
   -1.1780   -4.9050   -3.7210 H   0  0
   -0.1290   -3.5180   -2.0980 H   0  0
    1.2660   -3.1580   -3.1130 H   0  0
    2.2150   -3.9980   -0.8090 H   0  0
    3.4360   -6.5300   -1.3790 H   0  0
    2.1040   -6.8170   -0.2970 H   0  0
    3.0980   -5.0550    1.2950 H   0  0
    4.4100   -4.8650    0.2660 H   0  0
    3.6040   -7.4770    1.5740 H   0  0
    4.9180   -6.4590    2.1520 H   0  0
    7.2110   -7.3540   -0.3440 H   0  0
  1  2  2  0
  1  3  2  0
  1  4  1  0
  1  5  1  0
  4  6  1  0
  6  7  2  0
  6  8  1  0
  7  9  1  0
  7 10  1  0
  8 11  2  0
  9 12  1  0
  9 13  2  0
 12 14  1  0
 12 15  1  0
 14 16  1  0
 15 17  1  0
 16 18  2  0
 16 19  1  0
 17 20  2  0
 17 21  1  0
 18 22  1  0
 19 23  2  0
 20 24  1  0
 21 25  2  0
 22 26  2  0
 24 27  2  0
 26 28  1  0
 28 29  1  0
 29 30  2  0
 29 31  1  0
 30 32  1  0
 31 33  2  0
 32 34  2  0
 34 35  1  0
 35 36  1  0
 36 37  1  0
 37 38  1  0
 38 39  2  0
 38 40  1  0
 40 41  1  0
 41 42  1  0
 42 43  1  0
 43 44  1  0
 44 45  2  0
 44 46  1  0
 11 13  1  0
 23 26  1  0
 25 27  1  0
 33 34  1  0
  4 47  1  0
  5 48  1  0
  5 49  1  0
  5 50  1  0
  8 51  1  0
 10 52  1  0
 10 53  1  0
 10 54  1  0
 11 55  1  0
 13 56  1  0
 14 57  1  0
 14 58  1  0
 15 59  1  0
 15 60  1  0
 18 61  1  0
 19 62  1  0
 20 63  1  0
 21 64  1  0
 22 65  1  0
 23 66  1  0
 24 67  1  0
 25 68  1  0
 27 69  1  0
 30 70  1  0
 31 71  1  0
 32 72  1  0
 33 73  1  0
 35 74  1  0
 35 75  1  0
 36 76  1  0
 36 77  1  0
 37 78  1  0
 37 79  1  0
 40 80  1  0
 41 81  1  0
 41 82  1  0
 42 83  1  0
 42 84  1  0
 43 85  1  0
 43 86  1  0
 46 87  1  0
M  END
> <Name>
CHEMBL360746

> <IC50 nM>
1.4

> <Molecule_ChEMBL_ID>
CHEMBL360746

> <Smiles>
Cc1c(NS(C)(=O)=O)cccc1N(Cc1ccccc1)Cc1ccc(Oc2ccc(CCCC(=O)NCCCC(=O)O)cc2)cc1

$$$$
CHEMBL182464
  SciTegic08162514323D

 84 87  0  0  0  0            999 V2000
   -3.8400    4.2870   -0.6350 S   0  0
   -4.2760    3.5550    0.5410 O   0  0
   -4.3340    5.6530   -0.6720 O   0  0
   -2.2230    4.3560   -0.5960 N   0  0
   -4.4100    3.4280   -2.0940 C   0  0
   -1.4820    3.2290   -0.8510 C   0  0
   -0.1450    3.3150   -1.3050 C   0  0
   -2.0760    1.9670   -0.6520 C   0  0
    0.5860    2.1290   -1.5570 C   0  0
    0.4940    4.6530   -1.5190 C   0  0
   -1.3460    0.7950   -0.9040 C   0  0
    1.8850    2.1720   -1.9980 N   0  0
   -0.0200    0.8750   -1.3550 C   0  0
    2.9670    2.6490   -1.1250 C   0  0
    2.2130    1.7380   -3.3650 C   0  0
    3.1210    1.7850    0.0740 C   0  0
    3.0020    0.4790   -3.3650 C   0  0
    2.4140    2.0840    1.2540 C   0  0
    3.9750    0.6680    0.0330 C   0  0
    2.3440   -0.7630   -3.3650 C   0  0
    4.4080    0.5290   -3.3650 C   0  0
    2.5610    1.2680    2.3870 C   0  0
    4.1190   -0.1460    1.1680 C   0  0
    3.0920   -1.9550   -3.3650 C   0  0
    5.1540   -0.6620   -3.3650 C   0  0
    3.4120    0.1490    2.3480 C   0  0
    4.4960   -1.9040   -3.3650 C   0  0
    3.5490   -0.6170    3.4120 O   0  0
    2.4730   -0.8850    4.1230 C   0  0
    1.2340   -1.0800    3.4860 C   0  0
    2.5590   -0.9760    5.5240 C   0  0
    0.0860   -1.3670    4.2460 C   0  0
    1.4120   -1.2640    6.2850 C   0  0
    0.1760   -1.4570    5.6470 C   0  0
   -1.2210   -1.5720    3.5690 C   0  0
   -1.5470   -3.0580    3.4140 C   0  0
   -2.8460   -3.2460    2.7520 N   0  0
   -2.9770   -2.9300    1.4300 C   0  0
   -2.0330   -2.5000    0.8090 O   0  0
   -4.3150   -3.1290    0.7680 C   0  0
   -4.2150   -3.1250   -0.7580 C   0  0
   -3.4450   -4.3300   -1.3030 C   0  0
   -3.4200   -4.3610   -2.8070 C   0  0
   -4.1540   -5.0960   -3.4260 O   0  0
   -2.5450   -3.5390   -3.3770 O   0  0
   -1.7640    5.2190   -0.3870 H   0  0
   -3.9670    3.7810   -3.0250 H   0  0
   -5.4920    3.5330   -2.1800 H   0  0
   -4.1860    2.3650   -2.0020 H   0  0
   -3.0960    1.8810   -0.3070 H   0  0
    0.8710    5.0300   -0.5680 H   0  0
    1.2710    4.5670   -2.2770 H   0  0
   -0.2540    5.3560   -1.8850 H   0  0
   -1.8070   -0.1700   -0.7500 H   0  0
    0.5230   -0.0410   -1.5410 H   0  0
    2.7520    3.6700   -0.8120 H   0  0
    3.9020    2.6620   -1.6850 H   0  0
    2.7810    2.5240   -3.8630 H   0  0
    1.2890    1.5900   -3.9240 H   0  0
    1.7580    2.9420    1.2910 H   0  0
    4.5200    0.4340   -0.8690 H   0  0
    1.2660   -0.8100   -3.3650 H   0  0
    4.9200    1.4810   -3.3650 H   0  0
    2.0160    1.5000    3.2890 H   0  0
    4.7750   -1.0040    1.1330 H   0  0
    2.5860   -2.9080   -3.3650 H   0  0
    6.2320   -0.6230   -3.3650 H   0  0
    5.0680   -2.8180   -3.3650 H   0  0
    1.1680   -1.0100    2.4100 H   0  0
    3.5080   -0.8280    6.0180 H   0  0
    1.4800   -1.3340    7.3600 H   0  0
   -0.7030   -1.6780    6.2350 H   0  0
   -1.2090   -1.0760    2.5980 H   0  0
   -2.0060   -1.0620    4.1290 H   0  0
   -1.5660   -3.5510    4.3850 H   0  0
   -0.7730   -3.5640    2.8360 H   0  0
   -3.6290   -3.6010    3.2640 H   0  0
   -4.7210   -4.1010    1.0390 H   0  0
   -5.0140   -2.3670    1.1100 H   0  0
   -3.7750   -2.1930   -1.1150 H   0  0
   -5.2070   -3.0660   -1.2090 H   0  0
   -3.9590   -5.2110   -0.9220 H   0  0
   -2.4280   -4.3440   -0.9140 H   0  0
   -1.9920   -2.9760   -2.8180 H   0  0
  1  2  2  0
  1  3  2  0
  1  4  1  0
  1  5  1  0
  4  6  1  0
  6  7  2  0
  6  8  1  0
  7  9  1  0
  7 10  1  0
  8 11  2  0
  9 12  1  0
  9 13  2  0
 12 14  1  0
 12 15  1  0
 14 16  1  0
 15 17  1  0
 16 18  2  0
 16 19  1  0
 17 20  2  0
 17 21  1  0
 18 22  1  0
 19 23  2  0
 20 24  1  0
 21 25  2  0
 22 26  2  0
 24 27  2  0
 26 28  1  0
 28 29  1  0
 29 30  2  0
 29 31  1  0
 30 32  1  0
 31 33  2  0
 32 34  2  0
 32 35  1  0
 35 36  1  0
 36 37  1  0
 37 38  1  0
 38 39  2  0
 38 40  1  0
 40 41  1  0
 41 42  1  0
 42 43  1  0
 43 44  2  0
 43 45  1  0
 11 13  1  0
 23 26  1  0
 25 27  1  0
 33 34  1  0
  4 46  1  0
  5 47  1  0
  5 48  1  0
  5 49  1  0
  8 50  1  0
 10 51  1  0
 10 52  1  0
 10 53  1  0
 11 54  1  0
 13 55  1  0
 14 56  1  0
 14 57  1  0
 15 58  1  0
 15 59  1  0
 18 60  1  0
 19 61  1  0
 20 62  1  0
 21 63  1  0
 22 64  1  0
 23 65  1  0
 24 66  1  0
 25 67  1  0
 27 68  1  0
 30 69  1  0
 31 70  1  0
 33 71  1  0
 34 72  1  0
 35 73  1  0
 35 74  1  0
 36 75  1  0
 36 76  1  0
 37 77  1  0
 40 78  1  0
 40 79  1  0
 41 80  1  0
 41 81  1  0
 42 82  1  0
 42 83  1  0
 45 84  1  0
M  END
> <Name>
CHEMBL182464

> <IC50 nM>
6.5

> <Molecule_ChEMBL_ID>
CHEMBL182464

> <Smiles>
Cc1c(NS(C)(=O)=O)cccc1N(Cc1ccccc1)Cc1ccc(Oc2cccc(CCNC(=O)CCCC(=O)O)c2)cc1

$$$$
CHEMBL1684358
  SciTegic08162514323D

 60 64  0  0  1  0            999 V2000
    1.2990    1.2600    1.4280 F   0  0
    1.3650   -0.0740    1.4400 C   0  0
    2.6230   -0.7280    1.3970 C   0  0
    0.1640   -0.8360    1.4960 C   0  0
    2.6910   -2.1430    1.4120 C   0  0
    3.8520    0.0570    1.3360 C   0  0
    0.2320   -2.2640    1.5100 C   0  0
   -1.1520   -0.1370    1.5410 C   0  0  1  0  0  0
    3.8630   -2.7790    1.3770 F   0  0
    1.5020   -2.9020    1.4690 C   0  0
    4.1760    0.8260    0.1900 C   0  0
    4.7460    0.0610    2.4400 C   0  0
   -0.8910   -3.0290    1.5610 N   0  0
   -2.2870   -1.0370    1.0140 C   0  0  2  0  0  0
   -1.4360    0.3690    2.9610 C   0  0
    3.5230    1.0290   -1.0190 N   0  0
    5.3320    1.5650    0.1370 C   0  0
    5.9410    0.8260    2.3770 C   0  0
   -2.2600   -2.4490    1.6450 C   0  0
   -2.1600   -1.1460   -0.4000 O   0  0
    4.3280    1.9040   -1.7890 C   0  0
    6.2460    1.5880    1.2190 C   0  0
    5.4690    2.2290   -1.0330 C   0  0
   -3.2420   -3.3710    0.9100 C   0  0
   -2.6700   -2.3910    3.1190 C   0  0
   -2.5510   -0.0410   -1.0310 C   0  0
   -3.0390    0.9140   -0.4740 O   0  0
   -2.3690   -0.0330   -2.3850 N   0  0
   -2.7400    1.0610   -3.1190 C   0  0
   -1.9240    1.5100   -4.1760 C   0  0
   -3.9400    1.7360   -2.8180 C   0  0
   -2.3170    2.6350   -4.9240 C   0  0
   -4.3240    2.8610   -3.5700 C   0  0
   -1.4840    3.0980   -6.0040 C   0  0
   -3.5140    3.3130   -4.6250 C   0  0
   -0.8170    3.4690   -6.8730 N   0  0
   -1.1110    0.7380    0.8910 H   0  0
    1.5740   -3.9800    1.4810 H   0  0
    4.5310   -0.5140    3.3300 H   0  0
   -0.8150   -4.0290    1.5490 H   0  0
   -3.2520   -0.5620    1.2030 H   0  0
   -0.9610    1.3360    3.1270 H   0  0
   -2.5080    0.4670    3.1290 H   0  0
   -1.0450   -0.3260    3.7030 H   0  0
    2.6540    0.6350   -1.3010 H   0  0
    6.6230    0.8280    3.2150 H   0  0
    4.0720    2.2420   -2.7850 H   0  0
    7.1560    2.1680    1.1740 H   0  0
    6.2810    2.8770   -1.3340 H   0  0
   -2.9710   -3.4980   -0.1390 H   0  0
   -4.2520   -2.9650    0.9470 H   0  0
   -3.2620   -4.3570    1.3710 H   0  0
   -1.8240   -2.1500    3.7660 H   0  0
   -3.0780   -3.3480    3.4450 H   0  0
   -3.4360   -1.6310    3.2780 H   0  0
   -1.9650   -0.8280   -2.8400 H   0  0
   -1.0020    0.9920   -4.4100 H   0  0
   -4.5780    1.4020   -2.0100 H   0  0
   -5.2440    3.3770   -3.3360 H   0  0
   -3.8220    4.1780   -5.1930 H   0  0
  1  2  1  0
  2  3  2  0
  2  4  1  0
  3  5  1  0
  3  6  1  0
  4  7  2  0
  4  8  1  0
  5  9  1  0
  5 10  2  0
  6 11  2  0
  6 12  1  0
  7 13  1  0
  8 14  1  0
  8 15  1  0
 11 16  1  0
 11 17  1  0
 12 18  2  0
 13 19  1  0
 14 20  1  0
 16 21  1  0
 17 22  2  0
 17 23  1  0
 19 24  1  0
 19 25  1  0
 20 26  1  0
 26 27  2  0
 26 28  1  0
 28 29  1  0
 29 30  2  0
 29 31  1  0
 30 32  1  0
 31 33  2  0
 32 34  1  0
 32 35  2  0
 34 36  3  0
  7 10  1  0
 14 19  1  0
 18 22  1  0
 21 23  2  0
 33 35  1  0
  8 37  1  0
 10 38  1  0
 12 39  1  0
 13 40  1  0
 14 41  1  0
 15 42  1  0
 15 43  1  0
 15 44  1  0
 16 45  1  0
 18 46  1  0
 21 47  1  0
 22 48  1  0
 23 49  1  0
 24 50  1  0
 24 51  1  0
 24 52  1  0
 25 53  1  0
 25 54  1  0
 25 55  1  0
 28 56  1  0
 30 57  1  0
 31 58  1  0
 33 59  1  0
 35 60  1  0
M  END
> <Name>
CHEMBL1684358

> <IC50 nM>
38

> <Molecule_ChEMBL_ID>
CHEMBL1684358

> <Smiles>
C[C@H]1c2c(cc(F)c(-c3cccc4cc[nH]c34)c2F)NC(C)(C)[C@@H]1OC(=O)Nc1cccc(C#N)c1

$$$$
CHEMBL308145
  SciTegic08162514323D

 48 50  0  0  0  0            999 V2000
    2.2440   -2.1720    3.8260 S   0  0
    3.0590   -1.0470    4.2520 O   0  0
    1.0200   -2.3150    4.5920 O   0  0
    1.8260   -1.9140    2.2810 N   0  0
    3.2050   -3.6720    3.9860 C   0  0
    1.0330   -0.8460    1.9570 C   0  0
    0.6090   -0.6580    0.6270 C   0  0
    0.6370    0.0660    2.9530 C   0  0
   -0.2070    0.4410    0.2930 C   0  0
   -0.1800    1.1620    2.6210 C   0  0
   -0.6190    0.6250   -1.0000 N   0  0
   -0.6000    1.3500    1.2950 C   0  0
   -0.1330   -0.2440   -2.0800 C   0  0
   -1.5600    1.7070   -1.3240 C   0  0
   -0.8280   -1.5590   -2.0800 C   0  0
   -0.8830    3.0290   -1.3610 C   0  0
   -2.2340   -1.6090   -2.0800 C   0  0
   -0.0820   -2.7500   -2.0800 C   0  0
   -1.4120    4.1110   -0.6330 C   0  0
    0.2850    3.2010   -2.1230 C   0  0
   -2.8930   -2.8520   -2.0800 C   0  0
   -0.7400   -3.9920   -2.0800 C   0  0
   -0.7710    5.3610   -0.6680 C   0  0
    0.9260    4.4510   -2.1580 C   0  0
   -2.1460   -4.0430   -2.0800 C   0  0
    0.3970    5.5310   -1.4300 C   0  0
    2.1490   -2.5330    1.5660 H   0  0
    4.1000   -3.5980    3.3690 H   0  0
    3.4300   -3.8480    5.0390 H   0  0
    2.6190   -4.5180    3.6250 H   0  0
    0.9140   -1.3570   -0.1430 H   0  0
    0.9510   -0.0630    3.9810 H   0  0
   -0.4820    1.8590    3.3870 H   0  0
   -1.2260    2.1990    1.0590 H   0  0
    0.9400   -0.4020   -1.9590 H   0  0
   -0.2910    0.2500   -3.0390 H   0  0
   -2.3550    1.7250   -0.5780 H   0  0
   -2.0180    1.5060   -2.2930 H   0  0
   -2.8140   -0.6990   -2.0800 H   0  0
    0.9980   -2.7190   -2.0800 H   0  0
   -2.3090    3.9860   -0.0450 H   0  0
    0.6970    2.3750   -2.6860 H   0  0
   -3.9710   -2.8910   -2.0800 H   0  0
   -0.1680   -4.9080   -2.0800 H   0  0
   -1.1780    6.1910   -0.1070 H   0  0
    1.8240    4.5840   -2.7440 H   0  0
   -2.6520   -4.9980   -2.0800 H   0  0
    0.8890    6.4940   -1.4570 H   0  0
  1  2  2  0
  1  3  2  0
  1  4  1  0
  1  5  1  0
  4  6  1  0
  6  7  2  0
  6  8  1  0
  7  9  1  0
  8 10  2  0
  9 11  1  0
  9 12  2  0
 11 13  1  0
 11 14  1  0
 13 15  1  0
 14 16  1  0
 15 17  2  0
 15 18  1  0
 16 19  2  0
 16 20  1  0
 17 21  1  0
 18 22  2  0
 19 23  1  0
 20 24  2  0
 21 25  2  0
 23 26  2  0
 10 12  1  0
 22 25  1  0
 24 26  1  0
  4 27  1  0
  5 28  1  0
  5 29  1  0
  5 30  1  0
  7 31  1  0
  8 32  1  0
 10 33  1  0
 12 34  1  0
 13 35  1  0
 13 36  1  0
 14 37  1  0
 14 38  1  0
 17 39  1  0
 18 40  1  0
 19 41  1  0
 20 42  1  0
 21 43  1  0
 22 44  1  0
 23 45  1  0
 24 46  1  0
 25 47  1  0
 26 48  1  0
M  END
> <Name>
CHEMBL308145

> <IC50 nM>
2200

> <Molecule_ChEMBL_ID>
CHEMBL308145

> <Smiles>
CS(=O)(=O)Nc1cccc(N(Cc2ccccc2)Cc2ccccc2)c1

$$$$
CHEMBL183510
  SciTegic08162514323D

 80 84  0  0  1  0            999 V2000
   -1.0680    3.1950    6.1410 S   0  0
    0.3690    3.2890    5.9610 O   0  0
   -1.8220    3.7010    5.0080 O   0  0
   -1.4370    1.6270    6.3110 N   0  0
   -1.5310    4.1210    7.6000 C   0  0
   -2.4340    1.0700    5.5490 C   0  0
   -2.2830    0.8950    4.1520 C   0  0
   -3.6270    0.6680    6.1820 C   0  0
   -3.3360    0.3160    3.4020 C   0  0
   -1.0200    1.3180    3.4750 C   0  0
   -4.6660    0.0960    5.4340 C   0  0
   -3.2270    0.1310    2.0470 N   0  0
   -4.5220   -0.0800    4.0490 C   0  0
   -2.6290   -1.0940    1.4960 C   0  0
   -3.7110    1.1660    1.1230 C   0  0
   -2.2500   -0.9240    0.0700 C   0  0
   -4.3200    2.3090    1.8520 C   0  0
   -3.1620   -1.2600   -0.9450 C   0  0
   -0.9790   -0.4260   -0.2680 C   0  0
   -5.6560    2.2340    2.2870 C   0  0
   -3.5640    3.4670    2.1050 C   0  0
   -2.8030   -1.0980   -2.2950 C   0  0
   -0.6210   -0.2660   -1.6170 C   0  0
   -6.2320    3.3150    2.9770 C   0  0
   -4.1410    4.5470    2.7950 C   0  0
   -1.5330   -0.6020   -2.6350 C   0  0
   -5.4750    4.4710    3.2300 C   0  0
   -1.1970   -0.4510   -3.9000 O   0  0
    0.0470   -0.7170   -4.2460 C   0  0
    0.6930    0.0680   -5.2190 C   0  0
    0.7340   -1.7850   -3.6450 C   0  0
    2.0200   -0.2170   -5.5880 C   0  0
    2.0610   -2.0680   -4.0140 C   0  0
    2.7070   -1.2850   -4.9860 C   0  0
    3.9510   -1.5510   -5.3320 O   0  0
    4.6020   -2.6410   -4.6970 C   0  0
    6.0240   -2.7730   -5.2400 C   0  0  1  0  0  0
    6.7190   -1.5470   -4.9880 O   0  0
    6.7600   -3.9810   -4.6390 C   0  0
    8.0590   -1.5060   -5.1170 C   0  0
    8.1880   -4.0680   -5.1860 C   0  0  2  0  0  0
    8.6210   -0.4590   -5.3380 O   0  0
    8.9260   -2.7420   -4.9690 C   0  0
    8.1490   -4.3650   -6.5700 O   0  0
   -0.9370    1.0630    6.9690 H   0  0
   -1.3070    5.1860    7.5450 H   0  0
   -1.0100    3.7150    8.4670 H   0  0
   -2.6020    4.0140    7.7740 H   0  0
   -3.7600    0.7930    7.2480 H   0  0
   -0.6890    0.5310    2.7970 H   0  0
   -1.1820    2.2700    2.9670 H   0  0
   -0.2380    1.4670    4.2190 H   0  0
   -5.5780   -0.2110    5.9240 H   0  0
   -5.3360   -0.5230    3.4920 H   0  0
   -3.3420   -1.9120    1.5880 H   0  0
   -1.7440   -1.3540    2.0780 H   0  0
   -4.4490    0.7290    0.4490 H   0  0
   -2.8790    1.5230    0.5180 H   0  0
   -4.1410   -1.6410   -0.6930 H   0  0
   -0.2710   -0.1660    0.5080 H   0  0
   -6.2440    1.3480    2.0960 H   0  0
   -2.5370    3.5310    1.7730 H   0  0
   -3.5080   -1.3570   -3.0720 H   0  0
    0.3570    0.1150   -1.8710 H   0  0
   -7.2580    3.2560    3.3110 H   0  0
   -3.5590    5.4360    2.9900 H   0  0
   -5.9200    5.3030    3.7600 H   0  0
    0.1700    0.8910   -5.6840 H   0  0
    0.2440   -2.3910   -2.8990 H   0  0
    2.5100    0.3910   -6.3360 H   0  0
    2.5840   -2.8910   -3.5490 H   0  0
    4.0250   -3.5450   -4.8970 H   0  0
    4.6150   -2.4510   -3.6230 H   0  0
    5.9630   -2.8930   -6.3220 H   0  0
    6.7970   -3.8810   -3.5530 H   0  0
    6.2130   -4.9020   -4.8440 H   0  0
    8.7310   -4.8850   -4.7070 H   0  0
    9.7990   -2.6640   -5.6170 H   0  0
    9.3190   -2.7360   -3.9510 H   0  0
    7.7810   -5.2580   -6.6600 H   0  0
  1  2  2  0
  1  3  2  0
  1  4  1  0
  1  5  1  0
  4  6  1  0
  6  7  2  0
  6  8  1  0
  7  9  1  0
  7 10  1  0
  8 11  2  0
  9 12  1  0
  9 13  2  0
 12 14  1  0
 12 15  1  0
 14 16  1  0
 15 17  1  0
 16 18  2  0
 16 19  1  0
 17 20  2  0
 17 21  1  0
 18 22  1  0
 19 23  2  0
 20 24  1  0
 21 25  2  0
 22 26  2  0
 24 27  2  0
 26 28  1  0
 28 29  1  0
 29 30  2  0
 29 31  1  0
 30 32  1  0
 31 33  2  0
 32 34  2  0
 34 35  1  0
 35 36  1  0
 37 36  1  0
 37 38  1  0
 37 39  1  0
 38 40  1  0
 39 41  1  0
 40 42  2  0
 40 43  1  0
 41 44  1  0
 11 13  1  0
 23 26  1  0
 25 27  1  0
 33 34  1  0
 41 43  1  0
  4 45  1  0
  5 46  1  0
  5 47  1  0
  5 48  1  0
  8 49  1  0
 10 50  1  0
 10 51  1  0
 10 52  1  0
 11 53  1  0
 13 54  1  0
 14 55  1  0
 14 56  1  0
 15 57  1  0
 15 58  1  0
 18 59  1  0
 19 60  1  0
 20 61  1  0
 21 62  1  0
 22 63  1  0
 23 64  1  0
 24 65  1  0
 25 66  1  0
 27 67  1  0
 30 68  1  0
 31 69  1  0
 32 70  1  0
 33 71  1  0
 36 72  1  0
 36 73  1  0
 37 74  1  0
 39 75  1  0
 39 76  1  0
 41 77  1  0
 43 78  1  0
 43 79  1  0
 44 80  1  0
M  END
> <Name>
CHEMBL183510

> <IC50 nM>
2.1

> <Molecule_ChEMBL_ID>
CHEMBL183510

> <Smiles>
Cc1c(NS(C)(=O)=O)cccc1N(Cc1ccccc1)Cc1ccc(Oc2ccc(OC[C@@H]3C[C@@H](O)CC(=O)O3)cc2)cc1

$$$$
CHEMBL3421886
  SciTegic08162514323D

 49 51  0  0  1  0            999 V2000
   -5.0510   -3.1930   -0.3930 O   0  0
   -3.9940   -2.3750   -0.3070 C   0  0
   -3.3930   -2.1250    0.9470 C   0  0
   -3.4860   -1.7640   -1.4730 C   0  0
   -2.2810   -1.2500    1.0510 C   0  0
   -2.3670   -0.9140   -1.3810 C   0  0
   -1.7480   -0.6410   -0.1290 C   0  0
   -1.7050   -0.9800    2.3950 C   0  0
   -0.5900    0.3110   -0.0640 C   0  0  1  0  0  0
   -0.8650    0.3030    2.4490 C   0  0
    0.1430    0.2750    1.3010 C   0  0  2  0  0  0
    0.4980    0.0470   -1.1520 C   0  0
   -1.2280    1.6970   -0.2600 C   0  0
    1.2130    1.3790    1.3990 C   0  0
    1.6740    1.0650   -1.1310 C   0  0  2  0  0  0
   -1.8570    1.8670   -1.6430 C   0  0
    2.2990    1.2360    0.3010 C   0  0  1  0  0  0
    1.1620    2.3010   -1.5960 O   0  0
    2.7170    0.7030   -2.1990 C   0  0
    3.1110    2.4010    0.3560 O   0  0
    3.1880    0.1080    0.6150 C   0  0
    3.9260   -0.7930    0.8560 C   0  0
    4.8520   -1.8850    1.1370 C   0  0
   -5.3930   -3.6070    0.4100 H   0  0
   -3.7890   -2.6030    1.8320 H   0  0
   -3.9510   -1.9430   -2.4340 H   0  0
   -1.9960   -0.4650   -2.2890 H   0  0
   -2.4980   -0.9240    3.1390 H   0  0
   -1.0820   -1.8320    2.6720 H   0  0
   -1.5040    1.1840    2.3690 H   0  0
   -0.3590    0.3730    3.4140 H   0  0
    0.6700   -0.6740    1.3930 H   0  0
    0.9100   -0.9530   -1.0060 H   0  0
    0.0720    0.0310   -2.1540 H   0  0
   -1.9590    1.8990    0.5240 H   0  0
   -0.5020    2.4860   -0.0660 H   0  0
    0.7210    2.3500    1.3280 H   0  0
    1.6640    1.3710    2.3930 H   0  0
   -2.0140    2.9220   -1.8670 H   0  0
   -1.2210    1.4300   -2.4120 H   0  0
   -2.8260    1.3710   -1.6890 H   0  0
    0.8360    2.1540   -2.4960 H   0  0
    2.2720    0.6270   -3.1910 H   0  0
    3.1860   -0.2540   -1.9710 H   0  0
    3.5020    1.4570   -2.2420 H   0  0
    3.7680    2.3260   -0.3550 H   0  0
    4.5330   -2.7890    0.6190 H   0  0
    5.8520   -1.6230    0.7930 H   0  0
    4.8930   -2.0880    2.2070 H   0  0
  1  2  1  0
  2  3  2  0
  2  4  1  0
  3  5  1  0
  4  6  2  0
  5  7  2  0
  5  8  1  0
  7  9  1  0
  8 10  1  0
  9 11  1  0
  9 12  1  0
  9 13  1  0
 11 14  1  0
 12 15  1  0
 13 16  1  0
 14 17  1  0
 15 18  1  0
 15 19  1  0
 17 20  1  0
 17 21  1  0
 21 22  3  0
 22 23  1  0
  6  7  1  0
 10 11  1  0
 15 17  1  0
  1 24  1  0
  3 25  1  0
  4 26  1  0
  6 27  1  0
  8 28  1  0
  8 29  1  0
 10 30  1  0
 10 31  1  0
 11 32  1  0
 12 33  1  0
 12 34  1  0
 13 35  1  0
 13 36  1  0
 14 37  1  0
 14 38  1  0
 16 39  1  0
 16 40  1  0
 16 41  1  0
 18 42  1  0
 19 43  1  0
 19 44  1  0
 19 45  1  0
 20 46  1  0
 23 47  1  0
 23 48  1  0
 23 49  1  0
M  END
> <Name>
CHEMBL3421886

> <IC50 nM>
1.9

> <Molecule_ChEMBL_ID>
CHEMBL3421886

> <Smiles>
CC#C[C@]1(O)C[C@H]2CCc3cc(O)ccc3[C@]2(CC)C[C@@]1(C)O

$$$$
CHEMBL1668064
  SciTegic08162514323D

 63 66  0  0  1  0            999 V2000
   -0.4140   -4.0080    0.2400 S   0  0
   -1.4510   -5.0230    0.2970 O   0  0
    0.4240   -4.1090   -0.9420 O   0  0
   -1.2440   -2.4820    0.1090 N   0  0
    0.5900   -4.1780    1.6370 C   0  0
   -2.0020   -2.2210   -1.1020 C   0  0  2  0  0  0
    0.7560   -5.4410    2.2320 C   0  0
    1.2420   -3.0530    2.1740 C   0  0
   -2.3670   -0.7380   -1.1940 C   0  0
   -3.2250   -3.1370   -1.1780 C   0  0
    1.5740   -5.5780    3.3690 C   0  0
    0.0700   -6.6350    1.6700 C   0  0
    2.0580   -3.1930    3.3100 C   0  0
    1.0720   -1.7150    1.5490 C   0  0
   -1.1640    0.0960   -1.3190 N   0  0
    2.2240   -4.4550    3.9080 C   0  0
   -1.2780    1.4360   -1.3870 C   0  0
    3.0900   -4.6020    5.1070 C   0  0
   -0.0450    2.1640   -1.4960 C   0  0
   -2.5200    2.1190   -1.3600 C   0  0
   -0.1230    3.5490   -1.5690 C   0  0
    1.2320    1.6040   -1.5330 C   0  0
   -2.5490    3.5350   -1.4380 C   0  0
    1.1820    3.9180   -1.6600 N   0  0
   -1.3420    4.2680   -1.5430 C   0  0
    1.9450    2.7770   -1.6390 N   0  0
   -3.8380    4.2460   -1.4080 C   0  0
    1.6660    5.1840   -1.7580 C   0  0
    2.7190    5.4710   -2.6490 C   0  0
    1.1170    6.2130   -0.9690 C   0  0
    3.2190    6.7810   -2.7480 C   0  0
    1.6190    7.5220   -1.0680 C   0  0
    2.6700    7.8070   -1.9590 C   0  0
    3.1440    9.0470   -2.0530 F   0  0
   -1.8730   -2.3650    0.9160 H   0  0
   -1.2740   -2.4860   -1.8690 H   0  0
   -2.9320   -0.4260   -0.3170 H   0  0
   -3.0200   -0.5550   -2.0490 H   0  0
   -2.9200   -4.1760   -1.3010 H   0  0
   -3.8280   -3.0470   -0.2760 H   0  0
   -3.8520   -2.8710   -2.0290 H   0  0
    1.7010   -6.5490    3.8280 H   0  0
    0.1330   -6.7170    0.5840 H   0  0
   -0.9850   -6.6090    1.9410 H   0  0
    0.5040   -7.5390    2.0980 H   0  0
    2.5600   -2.3300    3.7250 H   0  0
    1.1090   -1.7210    0.4590 H   0  0
    1.8530   -1.0450    1.9060 H   0  0
    0.1110   -1.2930    1.8480 H   0  0
   -0.2600   -0.3340   -1.3500 H   0  0
    3.5490   -3.6720    5.4450 H   0  0
    3.8910   -5.3110    4.8940 H   0  0
    2.5000   -5.0020    5.9340 H   0  0
   -3.4470    1.5660   -1.2770 H   0  0
    1.6090    0.5900   -1.4980 H   0  0
   -1.3500    5.3480   -1.6040 H   0  0
   -4.7070    3.5940   -1.3240 H   0  0
   -3.9490    4.8340   -2.3190 H   0  0
   -3.8540    4.9340   -0.5630 H   0  0
    3.1540    4.6950   -3.2640 H   0  0
    0.3080    6.0140   -0.2770 H   0  0
    4.0250    6.9960   -3.4320 H   0  0
    1.1930    8.3070   -0.4610 H   0  0
  1  2  2  0
  1  3  2  0
  1  4  1  0
  1  5  1  0
  4  6  1  0
  5  7  2  0
  5  8  1  0
  6  9  1  0
  6 10  1  0
  7 11  1  0
  7 12  1  0
  8 13  2  0
  8 14  1  0
  9 15  1  0
 11 16  2  0
 15 17  1  0
 16 18  1  0
 17 19  2  0
 17 20  1  0
 19 21  1  0
 19 22  1  0
 20 23  2  0
 21 24  1  0
 21 25  2  0
 22 26  2  0
 23 27  1  0
 24 28  1  0
 28 29  2  0
 28 30  1  0
 29 31  1  0
 30 32  2  0
 31 33  2  0
 33 34  1  0
 13 16  1  0
 23 25  1  0
 24 26  1  0
 32 33  1  0
  4 35  1  0
  6 36  1  0
  9 37  1  0
  9 38  1  0
 10 39  1  0
 10 40  1  0
 10 41  1  0
 11 42  1  0
 12 43  1  0
 12 44  1  0
 12 45  1  0
 13 46  1  0
 14 47  1  0
 14 48  1  0
 14 49  1  0
 15 50  1  0
 18 51  1  0
 18 52  1  0
 18 53  1  0
 20 54  1  0
 22 55  1  0
 25 56  1  0
 27 57  1  0
 27 58  1  0
 27 59  1  0
 29 60  1  0
 30 61  1  0
 31 62  1  0
 32 63  1  0
M  END
> <Name>
CHEMBL1668064

> <IC50 nM>
15.85

> <Molecule_ChEMBL_ID>
CHEMBL1668064

> <Smiles>
Cc1cc(C)c(S(=O)(=O)N[C@@H](C)CNc2cc(C)cc3c2cnn3-c2ccc(F)cc2)c(C)c1

$$$$
CHEMBL71968
  SciTegic08162514323D

 55 57  0  0  0  0            999 V2000
    1.1600   -2.2620    3.7010 S   0  0
    0.1000   -1.6410    4.4750 O   0  0
    0.8050   -3.5760    3.1950 O   0  0
    1.4510   -1.3110    2.4220 N   0  0
    2.6130   -2.4140    4.7310 C   0  0
    0.4590   -1.0720    1.5040 C   0  0
    0.6880   -0.2540    0.3730 C   0  0
   -0.8050   -1.6600    1.7010 C   0  0
   -0.3610   -0.0310   -0.5530 C   0  0
    2.0270    0.3750    0.1540 C   0  0
   -1.8400   -1.4380    0.7810 C   0  0
   -0.1800    0.7560   -1.6620 N   0  0
   -1.6210   -0.6270   -0.3420 C   0  0
   -0.0270    2.2130   -1.5370 C   0  0
   -0.1350    0.1460   -2.9980 C   0  0
   -0.6600    2.7270   -0.2950 C   0  0
    0.6540   -1.1130   -2.9980 C   0  0
   -2.0630    2.7300   -0.1580 C   0  0
    0.1480    3.2090    0.7500 C   0  0
   -0.0040   -2.3570   -2.9980 C   0  0
    2.0610   -1.0630   -2.9980 C   0  0
   -2.8320    2.2810   -1.1310 O   0  0
   -2.6470    3.2210    1.0230 C   0  0
   -0.4390    3.6970    1.9300 C   0  0
    0.7440   -3.5470   -2.9980 C   0  0
    2.8070   -2.2540   -2.9980 C   0  0
   -4.2380    2.3240   -0.9410 C   0  0
   -1.8380    3.7010    2.0660 C   0  0
    2.1480   -3.4960   -2.9980 C   0  0
    2.3540   -0.8970    2.3030 H   0  0
    2.4790   -3.0450    5.6090 H   0  0
    2.9200   -1.4260    5.0740 H   0  0
    3.4320   -2.8320    4.1450 H   0  0
   -0.9960   -2.2890    2.5610 H   0  0
    2.1270    0.9040   -0.7930 H   0  0
    2.7990   -0.3950    0.1890 H   0  0
    2.2290    1.0860    0.9550 H   0  0
   -2.8070   -1.8910    0.9370 H   0  0
   -2.4340   -0.4690   -1.0370 H   0  0
    1.0330    2.4630   -1.5350 H   0  0
   -0.4820    2.6950   -2.4020 H   0  0
    0.3090    0.8520   -3.6990 H   0  0
   -1.1500   -0.0630   -3.3320 H   0  0
    1.2250    3.2070    0.6500 H   0  0
   -1.0820   -2.4020   -2.9980 H   0  0
    2.5720   -0.1110   -2.9980 H   0  0
   -3.7210    3.2250    1.1330 H   0  0
    0.1840    4.0660    2.7300 H   0  0
    0.2380   -4.5020   -2.9980 H   0  0
    3.8870   -2.2150   -2.9980 H   0  0
   -4.7170    2.0100   -1.8670 H   0  0
   -4.4810    1.7420   -0.0510 H   0  0
   -4.5250    3.3570   -0.7520 H   0  0
   -2.2890    4.0760    2.9730 H   0  0
    2.7230   -4.4120   -2.9980 H   0  0
  1  2  2  0
  1  3  2  0
  1  4  1  0
  1  5  1  0
  4  6  1  0
  6  7  2  0
  6  8  1  0
  7  9  1  0
  7 10  1  0
  8 11  2  0
  9 12  1  0
  9 13  2  0
 12 14  1  0
 12 15  1  0
 14 16  1  0
 15 17  1  0
 16 18  2  0
 16 19  1  0
 17 20  2  0
 17 21  1  0
 18 22  1  0
 18 23  1  0
 19 24  2  0
 20 25  1  0
 21 26  2  0
 22 27  1  0
 23 28  2  0
 25 29  2  0
 11 13  1  0
 24 28  1  0
 26 29  1  0
  4 30  1  0
  5 31  1  0
  5 32  1  0
  5 33  1  0
  8 34  1  0
 10 35  1  0
 10 36  1  0
 10 37  1  0
 11 38  1  0
 13 39  1  0
 14 40  1  0
 14 41  1  0
 15 42  1  0
 15 43  1  0
 19 44  1  0
 20 45  1  0
 21 46  1  0
 23 47  1  0
 24 48  1  0
 25 49  1  0
 26 50  1  0
 27 51  1  0
 27 52  1  0
 27 53  1  0
 28 54  1  0
 29 55  1  0
M  END
> <Name>
CHEMBL71968

> <IC50 nM>
690

> <Molecule_ChEMBL_ID>
CHEMBL71968

> <Smiles>
COc1ccccc1CN(Cc1ccccc1)c1cccc(NS(C)(=O)=O)c1C

$$$$
CHEMBL429987
  SciTegic08162514323D

 49 50  0  0  1  0            999 V2000
    5.5980    0.9470    2.5920 F   0  0
    4.8200    0.7750    1.5250 C   0  0
    3.6210    0.0510    1.6390 C   0  0
    5.1970    1.3200    0.2850 C   0  0
    2.7990   -0.1310    0.5120 C   0  0
    4.3750    1.1390   -0.8400 C   0  0
    3.1760    0.4140   -0.7330 C   0  0
    1.5330   -0.9000    0.6430 C   0  0
    2.4120    0.2500   -1.7950 O   0  0
    0.6560    0.3460    0.7710 C   0  0
    1.5250   -1.7620    1.9060 C   0  0
    1.2300   -1.7070   -0.6230 C   0  0
    2.7250    0.9980   -2.9610 C   0  0
   -0.8340    0.0140    0.8460 C   0  0  1  0  0  0
   -1.0080   -1.0220    1.7870 O   0  0
   -1.5330    1.2660    1.3770 C   0  0
   -1.4020   -0.4570   -0.4920 C   0  0
   -2.8500    0.9780    1.6370 F   0  0
   -1.4590    2.2620    0.4370 F   0  0
   -0.9200    1.6780    2.5310 F   0  0
   -2.8770   -0.2850   -0.5530 C   0  0
   -3.4300    0.8670   -1.1410 C   0  0
   -3.7250   -1.2750   -0.0200 C   0  0
   -4.8240    1.0330   -1.1990 C   0  0
   -5.1190   -1.1170   -0.0740 C   0  0
   -5.6640    0.0390   -0.6640 C   0  0
   -7.0920    0.2050   -0.7230 C   0  0
   -8.2420    0.3380   -0.7700 N   0  0
    3.3320   -0.3690    2.5920 H   0  0
    6.1170    1.8790    0.1950 H   0  0
    4.6680    1.5590   -1.7910 H   0  0
    0.8550    1.0430   -0.0430 H   0  0
    0.9610    0.9430    1.6290 H   0  0
    2.4820   -2.2580    2.0640 H   0  0
    0.7560   -2.5310    1.8420 H   0  0
    1.3160   -1.1520    2.7850 H   0  0
    0.5490   -2.5330   -0.4240 H   0  0
    2.1470   -2.1230   -1.0410 H   0  0
    0.7750   -1.0720   -1.3830 H   0  0
    1.9800    0.7700   -3.7230 H   0  0
    2.8180    2.0470   -2.6800 H   0  0
    3.6930    0.6640   -3.3320 H   0  0
   -1.9590   -1.2110    1.8320 H   0  0
   -1.1500   -1.5040   -0.6720 H   0  0
   -0.9390    0.0820   -1.3180 H   0  0
   -2.7870    1.6330   -1.5530 H   0  0
   -3.3090   -2.1640    0.4350 H   0  0
   -5.2360    1.9220   -1.6540 H   0  0
   -5.7600   -1.8850    0.3400 H   0  0
  1  2  1  0
  2  3  2  0
  2  4  1  0
  3  5  1  0
  4  6  2  0
  5  7  2  0
  5  8  1  0
  7  9  1  0
  8 10  1  0
  8 11  1  0
  8 12  1  0
  9 13  1  0
 10 14  1  0
 14 15  1  0
 14 16  1  0
 14 17  1  0
 16 18  1  0
 16 19  1  0
 16 20  1  0
 17 21  1  0
 21 22  2  0
 21 23  1  0
 22 24  1  0
 23 25  2  0
 24 26  2  0
 26 27  1  0
 27 28  3  0
  6  7  1  0
 25 26  1  0
  3 29  1  0
  4 30  1  0
  6 31  1  0
 10 32  1  0
 10 33  1  0
 11 34  1  0
 11 35  1  0
 11 36  1  0
 12 37  1  0
 12 38  1  0
 12 39  1  0
 13 40  1  0
 13 41  1  0
 13 42  1  0
 15 43  1  0
 17 44  1  0
 17 45  1  0
 22 46  1  0
 23 47  1  0
 24 48  1  0
 25 49  1  0
M  END
> <Name>
CHEMBL429987

> <IC50 nM>
30

> <Molecule_ChEMBL_ID>
CHEMBL429987

> <Smiles>
COc1ccc(F)cc1C(C)(C)CC(O)(Cc1ccc(C#N)cc1)C(F)(F)F

$$$$
CHEMBL393392
  SciTegic08162514323D

 54 55  0  0  1  0            999 V2000
   -3.7740    1.8620    1.2370 F   0  0
   -3.4450    0.6130    0.9150 C   0  0
   -2.2260    0.0700    1.3560 C   0  0
   -4.3160   -0.1630    0.1320 C   0  0
   -1.8770   -1.2490    1.0150 C   0  0
   -3.9690   -1.4810   -0.2080 C   0  0
   -2.7500   -2.0290    0.2310 C   0  0
   -0.5850   -1.8140    1.4870 C   0  0
   -2.4340   -3.2670   -0.0950 O   0  0
   -0.0320   -2.0240    0.0780 C   0  0
   -0.7870   -3.1270    2.2440 C   0  0
    0.2170   -0.7880    2.2890 C   0  0
   -3.4480   -4.0880   -0.6570 C   0  0
    0.8890   -0.8880   -0.3700 C   0  0  1  0  0  0
    1.8990   -0.7300    0.6010 O   0  0
    1.5450   -1.3470   -1.6730 C   0  0
    0.1540    0.4450   -0.5170 C   0  0
    2.0910   -2.5920   -1.4960 F   0  0
    2.5310   -0.4610   -2.0240 F   0  0
    0.6020   -1.3980   -2.6660 F   0  0
    1.1020    1.5830   -0.6300 C   0  0
    1.5320    2.0180   -1.8970 C   0  0
    1.5710    2.2260    0.5300 C   0  0
    2.4290    3.0960   -2.0040 C   0  0
    2.4680    3.3030    0.4230 C   0  0
    2.8970    3.7380   -0.8430 C   0  0
    2.8820    3.5550   -3.3420 C   0  0
    2.9640    3.9830    1.6490 C   0  0
   -1.5560    0.6690    1.9570 H   0  0
   -5.2550    0.2490   -0.2090 H   0  0
   -4.6410   -2.0750   -0.8100 H   0  0
   -0.8420   -2.1670   -0.6370 H   0  0
    0.4770   -2.9850    0.0030 H   0  0
   -1.2950   -2.9740    3.1960 H   0  0
    0.1710   -3.6040    2.4510 H   0  0
   -1.3850   -3.8230    1.6550 H   0  0
   -0.2790   -0.5240    3.2230 H   0  0
    0.3560    0.1270    1.7150 H   0  0
    1.2040   -1.1790    2.5360 H   0  0
   -3.0560   -5.1010   -0.7450 H   0  0
   -4.3520   -3.9710   -0.0590 H   0  0
   -3.6630   -3.7250   -1.6620 H   0  0
    2.7150   -0.5000    0.1300 H   0  0
   -0.5150    0.6110    0.3270 H   0  0
   -0.5010    0.4290   -1.3890 H   0  0
    1.1710    1.5240   -2.7880 H   0  0
    1.2410    1.8920    1.5030 H   0  0
    3.5870    4.5660   -0.9260 H   0  0
    3.5770    4.3950   -3.3170 H   0  0
    2.0180    3.8550   -3.9350 H   0  0
    3.3740    2.7330   -3.8620 H   0  0
    2.6310    3.5260    2.5810 H   0  0
    2.6310    5.0210    1.6490 H   0  0
    4.0540    3.9830    1.6490 H   0  0
  1  2  1  0
  2  3  2  0
  2  4  1  0
  3  5  1  0
  4  6  2  0
  5  7  2  0
  5  8  1  0
  7  9  1  0
  8 10  1  0
  8 11  1  0
  8 12  1  0
  9 13  1  0
 10 14  1  0
 14 15  1  0
 14 16  1  0
 14 17  1  0
 16 18  1  0
 16 19  1  0
 16 20  1  0
 17 21  1  0
 21 22  2  0
 21 23  1  0
 22 24  1  0
 23 25  2  0
 24 26  2  0
 24 27  1  0
 25 28  1  0
  6  7  1  0
 25 26  1  0
  3 29  1  0
  4 30  1  0
  6 31  1  0
 10 32  1  0
 10 33  1  0
 11 34  1  0
 11 35  1  0
 11 36  1  0
 12 37  1  0
 12 38  1  0
 12 39  1  0
 13 40  1  0
 13 41  1  0
 13 42  1  0
 15 43  1  0
 17 44  1  0
 17 45  1  0
 22 46  1  0
 23 47  1  0
 26 48  1  0
 27 49  1  0
 27 50  1  0
 27 51  1  0
 28 52  1  0
 28 53  1  0
 28 54  1  0
M  END
> <Name>
CHEMBL393392

> <IC50 nM>
55

> <Molecule_ChEMBL_ID>
CHEMBL393392

> <Smiles>
COc1ccc(F)cc1C(C)(C)CC(O)(Cc1cc(C)cc(C)c1)C(F)(F)F

$$$$
CHEMBL228932
  SciTegic08162514323D

 65 68  0  0  1  0            999 V2000
   -0.8650   -1.5650    0.6720 O   0  0
   -1.6990   -1.2070    1.7500 C   0  0  2  0  0  0
   -1.5040   -1.4670   -0.5800 C   0  0
   -2.0060    0.2700    1.6800 C   0  0
   -0.9940   -1.5940    3.0510 C   0  0
   -0.5390   -1.9750   -1.6500 C   0  0
   -0.9220    1.2930    1.7300 C   0  0
   -3.2910    0.6640    1.5700 C   0  0
   -1.1330   -1.9140   -3.0590 C   0  0
   -1.2540    2.6780    1.6600 C   0  0
    0.4360    0.8930    1.8500 C   0  0
   -3.6930    2.1270    1.4920 C   0  0
   -0.1740   -2.4140   -4.0780 C   0  0
   -2.5450    3.0780    1.5470 N   0  0
   -0.2130    3.6410    1.7110 C   0  0
    1.4690    1.8610    1.8980 C   0  0
   -4.4450    2.3440    0.1780 C   0  0
   -4.6270    2.4260    2.6680 C   0  0
   -0.5390   -2.4360   -5.4380 C   0  0
    1.1000   -2.8630   -3.6880 C   0  0
    1.1350    3.2360    1.8280 C   0  0
    2.8590    1.4470    2.0210 C   0  0
    0.3670   -2.9080   -6.4030 C   0  0
    2.0060   -3.3360   -4.6520 C   0  0
    3.4400    0.5840    1.0640 C   0  0
    3.6290    1.9140    3.1040 C   0  0
    1.6410   -3.3580   -6.0100 C   0  0
    2.7380    0.1330    0.0410 O   0  0
    4.7830    0.1970    1.2030 C   0  0
    4.9730    1.5210    3.2340 C   0  0
    3.4200   -0.6230   -0.9490 C   0  0
    5.5490    0.6640    2.2830 C   0  0
   -2.6410   -1.7480    1.6460 H   0  0
   -1.7540   -0.4200   -0.7520 H   0  0
   -2.4040   -2.0800   -0.5510 H   0  0
   -1.5620   -2.3320    3.6170 H   0  0
   -0.8550   -0.7210    3.6890 H   0  0
   -0.0120   -2.0180    2.8440 H   0  0
   -0.2030   -2.9860   -1.4180 H   0  0
    0.4060   -1.4320   -1.6080 H   0  0
   -4.0680   -0.0880    1.5330 H   0  0
   -1.4300   -0.8950   -3.3070 H   0  0
   -2.0550   -2.4920   -3.1130 H   0  0
    0.6860   -0.1560    1.9020 H   0  0
   -2.7620    4.0570    1.4940 H   0  0
   -0.4360    4.6990    1.6580 H   0  0
   -3.8160    2.1430   -0.6900 H   0  0
   -4.7970    3.3730    0.1020 H   0  0
   -5.3160    1.6890    0.1190 H   0  0
   -4.1310    2.2810    3.6290 H   0  0
   -5.5000    1.7710    2.6450 H   0  0
   -4.9810    3.4550    2.6270 H   0  0
   -1.5160   -2.0920   -5.7440 H   0  0
    1.3870   -2.8500   -2.6470 H   0  0
    1.9080    3.9920    1.8650 H   0  0
    0.0860   -2.9240   -7.4450 H   0  0
    2.9840   -3.6820   -4.3520 H   0  0
    3.2010    2.5740    3.8440 H   0  0
    2.3360   -3.7210   -6.7520 H   0  0
    5.2330   -0.4630    0.4750 H   0  0
    5.5610    1.8810    4.0660 H   0  0
    2.6950   -0.9160   -1.7110 H   0  0
    4.2740   -0.0430   -1.2950 H   0  0
    3.7990   -1.5330   -0.4840 H   0  0
    6.5820    0.3630    2.3850 H   0  0
  1  2  1  0
  1  3  1  0
  2  4  1  0
  2  5  1  0
  3  6  1  0
  4  7  1  0
  4  8  2  0
  6  9  1  0
  7 10  2  0
  7 11  1  0
  8 12  1  0
  9 13  1  0
 10 14  1  0
 10 15  1  0
 11 16  2  0
 12 17  1  0
 12 18  1  0
 13 19  2  0
 13 20  1  0
 15 21  2  0
 16 22  1  0
 19 23  1  0
 20 24  2  0
 22 25  2  0
 22 26  1  0
 23 27  2  0
 25 28  1  0
 25 29  1  0
 26 30  2  0
 28 31  1  0
 29 32  2  0
 12 14  1  0
 16 21  1  0
 24 27  1  0
 30 32  1  0
  2 33  1  0
  3 34  1  0
  3 35  1  0
  5 36  1  0
  5 37  1  0
  5 38  1  0
  6 39  1  0
  6 40  1  0
  8 41  1  0
  9 42  1  0
  9 43  1  0
 11 44  1  0
 14 45  1  0
 15 46  1  0
 17 47  1  0
 17 48  1  0
 17 49  1  0
 18 50  1  0
 18 51  1  0
 18 52  1  0
 19 53  1  0
 20 54  1  0
 21 55  1  0
 23 56  1  0
 24 57  1  0
 26 58  1  0
 27 59  1  0
 29 60  1  0
 30 61  1  0
 31 62  1  0
 31 63  1  0
 31 64  1  0
 32 65  1  0
M  END
> <Name>
CHEMBL228932

> <IC50 nM>
260

> <Molecule_ChEMBL_ID>
CHEMBL228932

> <Smiles>
COc1ccccc1-c1ccc2c(c1)C(C(C)OCCCc1ccccc1)=CC(C)(C)N2

$$$$
CHEMBL4744881
  SciTegic08162514323D

 56 58  0  0  1  0            999 V2000
   -0.3690    7.3790    0.6270 F   0  0
   -0.8180    6.7660   -0.5140 C   0  0
   -1.7380    7.5720   -1.1330 F   0  0
    0.2380    6.5450   -1.3600 F   0  0
   -1.4490    5.4610   -0.1080 C   0  0
   -1.4900    5.1250    1.0530 O   0  0
   -1.9770    4.6580   -1.0780 N   0  0
   -2.5960    3.3790   -0.6990 C   0  0  2  0  0  0
   -1.6050    2.2250   -0.8480 C   0  0  2  0  0  0
   -3.8930    3.1480   -1.4750 C   0  0
   -2.2560    1.0000   -0.5430 O   0  0
   -0.4280    2.3940    0.0430 C   0  0
   -1.5370   -0.1040   -0.5610 C   0  0
    0.8200    2.7520   -0.5000 C   0  0
   -0.5590    2.1990    1.4300 C   0  0
   -0.3850   -0.1840   -1.3620 C   0  0
   -1.9220   -1.2110    0.2190 C   0  0
    1.9340    2.9140    0.3420 C   0  0
    0.5550    2.3610    2.2710 C   0  0
    0.3830   -1.3610   -1.3830 C   0  0
   -1.1560   -2.3890    0.1990 C   0  0
    1.8030    2.7190    1.7280 C   0  0
   -0.0020   -2.4650   -0.6020 C   0  0
    2.9810    2.8890    2.6190 C   0  0
    0.8130   -3.7170   -0.6230 C   0  0
    1.8070   -3.7990   -1.3050 O   0  0
    0.4120   -4.7740    0.1440 N   0  0
    1.1390   -5.9340    0.1440 C   0  0
    0.4820   -7.1800    0.1440 C   0  0
    2.5470   -5.8850    0.1440 C   0  0
    1.2310   -8.3690    0.1440 C   0  0
    3.2910   -7.0780    0.1440 C   0  0
    2.6350   -8.3190    0.1440 C   0  0
   -1.9390    4.9370   -2.0370 H   0  0
   -2.9570    3.4470    0.3260 H   0  0
   -1.2730    2.1850   -1.8850 H   0  0
   -3.6930    3.0570   -2.5410 H   0  0
   -4.3950    2.2440   -1.1270 H   0  0
   -4.5780    3.9840   -1.3360 H   0  0
    0.9280    2.9040   -1.5650 H   0  0
   -1.5140    1.9240    1.8510 H   0  0
   -0.0840    0.6620   -1.9630 H   0  0
   -2.8070   -1.1560    0.8360 H   0  0
    2.8890    3.1870   -0.0800 H   0  0
    0.4470    2.2090    3.3360 H   0  0
    1.2680   -1.4100   -2.0020 H   0  0
   -1.4590   -3.2330    0.8030 H   0  0
    2.7740    2.7150    3.6760 H   0  0
    3.3690    3.9020    2.5190 H   0  0
    3.7700    2.1990    2.3160 H   0  0
   -0.4120   -4.6990    0.7050 H   0  0
   -0.5980   -7.2380    0.1440 H   0  0
    3.0700   -4.9400    0.1440 H   0  0
    0.7250   -9.3240    0.1440 H   0  0
    4.3710   -7.0390    0.1440 H   0  0
    3.2070   -9.2350    0.1440 H   0  0
  1  2  1  0
  2  3  1  0
  2  4  1  0
  2  5  1  0
  5  6  2  0
  5  7  1  0
  7  8  1  0
  8  9  1  0
  8 10  1  0
  9 11  1  0
  9 12  1  0
 11 13  1  0
 12 14  2  0
 12 15  1  0
 13 16  2  0
 13 17  1  0
 14 18  1  0
 15 19  2  0
 16 20  1  0
 17 21  2  0
 18 22  2  0
 20 23  2  0
 22 24  1  0
 23 25  1  0
 25 26  2  0
 25 27  1  0
 27 28  1  0
 28 29  2  0
 28 30  1  0
 29 31  1  0
 30 32  2  0
 31 33  2  0
 19 22  1  0
 21 23  1  0
 32 33  1  0
  7 34  1  0
  8 35  1  0
  9 36  1  0
 10 37  1  0
 10 38  1  0
 10 39  1  0
 14 40  1  0
 15 41  1  0
 16 42  1  0
 17 43  1  0
 18 44  1  0
 19 45  1  0
 20 46  1  0
 21 47  1  0
 24 48  1  0
 24 49  1  0
 24 50  1  0
 27 51  1  0
 29 52  1  0
 30 53  1  0
 31 54  1  0
 32 55  1  0
 33 56  1  0
M  END
> <Name>
CHEMBL4744881

> <IC50 nM>
5000

> <Molecule_ChEMBL_ID>
CHEMBL4744881

> <Smiles>
Cc1ccc([C@@H](Oc2ccc(C(=O)Nc3ccccc3)cc2)[C@H](C)NC(=O)C(F)(F)F)cc1

$$$$
CHEMBL4763360
  SciTegic08162514323D

 72 75  0  0  1  0            999 V2000
   -9.4670   -1.9490    3.8320 F   0  0
   -8.1130   -1.7680    3.9320 C   0  0
   -7.7990   -1.3650    5.2050 F   0  0
   -7.4710   -2.9450    3.6540 F   0  0
   -7.7250   -0.7090    2.9360 C   0  0
   -8.5550   -0.1880    2.2290 O   0  0
   -6.4120   -0.3440    2.8400 N   0  0
   -6.0180    0.6880    1.8710 C   0  0  2  0  0  0
   -4.5470    0.5370    1.4810 C   0  0  2  0  0  0
   -6.3480    2.0860    2.3950 C   0  0
   -4.1900    1.5740    0.5780 O   0  0
   -4.2810   -0.7830    0.8480 C   0  0
   -2.9750    1.5590    0.0680 C   0  0
   -3.5220   -1.7500    1.5290 C   0  0
   -4.7890   -1.0660   -0.4320 C   0  0
   -2.7340    2.1090   -1.2030 C   0  0
   -1.9100    0.9880    0.7910 C   0  0
   -3.2700   -2.9960    0.9320 C   0  0
   -4.5370   -2.3130   -1.0290 C   0  0
   -1.4400    2.0920   -1.7500 C   0  0
   -0.6150    0.9710    0.2480 C   0  0
   -3.7770   -3.2790   -0.3480 C   0  0
   -0.3770    1.5230   -1.0230 C   0  0
   -3.5120   -4.6000   -0.9790 C   0  0
    1.0000    1.5040   -1.6020 C   0  0
    1.2210    1.9750   -2.6930 O   0  0
    1.9300    0.9430   -0.8340 O   0  0
    3.2420    1.1540   -1.3340 C   0  0  2  0  0  0
    4.2130    0.1840   -0.6350 C   0  0
    3.6390    2.6230   -1.1210 C   0  0
    5.6210    0.4920   -0.9820 N   0  0
    5.0840    2.8570   -1.5800 C   0  0
    6.4810   -0.4980   -1.3790 C   0  0
    6.0740    1.9020   -0.8890 C   0  0
    6.0980   -1.6430   -1.4650 O   0  0
    7.9080   -0.1310   -1.7070 C   0  0  1  0  0  0
    8.7170    0.2320   -0.4510 C   0  0
    8.7290   -1.3300   -2.1860 C   0  0
    9.2250   -0.9840    0.0940 O   0  0
    9.3110   -1.8520   -0.9060 C   0  0
    9.7890   -2.9590   -0.8180 O   0  0
   -5.7270   -0.7770    3.4260 H   0  0
   -6.6580    0.6190    0.9920 H   0  0
   -3.9380    0.6390    2.3770 H   0  0
   -7.4140    2.1760    2.6060 H   0  0
   -5.7850    2.3010    3.3030 H   0  0
   -6.0900    2.8440    1.6540 H   0  0
   -3.1270   -1.5390    2.5140 H   0  0
   -5.3730   -0.3280   -0.9610 H   0  0
   -3.5450    2.5470   -1.7640 H   0  0
   -2.0880    0.5640    1.7680 H   0  0
   -2.6860   -3.7340    1.4610 H   0  0
   -4.9320   -2.5230   -2.0140 H   0  0
   -1.2660    2.5200   -2.7270 H   0  0
    0.1950    0.5310    0.8130 H   0  0
   -3.9490   -4.7190   -1.9710 H   0  0
   -3.9060   -5.3930   -0.3440 H   0  0
   -2.4360   -4.7480   -1.0700 H   0  0
    3.2210    0.9390   -2.4020 H   0  0
    4.1060    0.2640    0.4470 H   0  0
    3.9710   -0.8460   -0.9020 H   0  0
    2.9590    3.2790   -1.6680 H   0  0
    3.5430    2.8790   -0.0660 H   0  0
    5.3730    3.8910   -1.3870 H   0  0
    5.1430    2.7190   -2.6600 H   0  0
    6.1620    2.1600    0.1660 H   0  0
    7.0680    2.0140   -1.3260 H   0  0
    7.9100    0.6700   -2.4300 H   0  0
    8.1430    0.7560    0.3010 H   0  0
    9.5610    0.8550   -0.7170 H   0  0
    8.1390   -2.0800   -2.6910 H   0  0
    9.5290   -1.0210   -2.8440 H   0  0
  1  2  1  0
  2  3  1  0
  2  4  1  0
  2  5  1  0
  5  6  2  0
  5  7  1  0
  7  8  1  0
  8  9  1  0
  8 10  1  0
  9 11  1  0
  9 12  1  0
 11 13  1  0
 12 14  2  0
 12 15  1  0
 13 16  2  0
 13 17  1  0
 14 18  1  0
 15 19  2  0
 16 20  1  0
 17 21  2  0
 18 22  2  0
 20 23  2  0
 22 24  1  0
 23 25  1  0
 25 26  2  0
 25 27  1  0
 28 27  1  0
 28 29  1  0
 28 30  1  0
 29 31  1  0
 30 32  1  0
 31 33  1  0
 31 34  1  0
 33 35  2  0
 36 33  1  0
 36 37  1  0
 36 38  1  0
 37 39  1  0
 38 40  1  0
 40 41  2  0
 19 22  1  0
 21 23  1  0
 32 34  1  0
 39 40  1  0
  7 42  1  0
  8 43  1  0
  9 44  1  0
 10 45  1  0
 10 46  1  0
 10 47  1  0
 14 48  1  0
 15 49  1  0
 16 50  1  0
 17 51  1  0
 18 52  1  0
 19 53  1  0
 20 54  1  0
 21 55  1  0
 24 56  1  0
 24 57  1  0
 24 58  1  0
 28 59  1  0
 29 60  1  0
 29 61  1  0
 30 62  1  0
 30 63  1  0
 32 64  1  0
 32 65  1  0
 34 66  1  0
 34 67  1  0
 36 68  1  0
 37 69  1  0
 37 70  1  0
 38 71  1  0
 38 72  1  0
M  END
> <Name>
CHEMBL4763360

> <IC50 nM>
2

> <Molecule_ChEMBL_ID>
CHEMBL4763360

> <Smiles>
Cc1ccc([C@@H](Oc2ccc(C(=O)O[C@H]3CCCN(C(=O)[C@H]4COC(=O)C4)C3)cc2)[C@H](C)NC(=O)C(F)(F)F)cc1

$$$$
CHEMBL4796205
  SciTegic08162514323D

 72 75  0  0  1  0            999 V2000
   -5.3240   -9.1270   -0.5250 F   0  0
   -4.0290   -8.7130   -0.7010 C   0  0
   -3.1780   -9.7620   -0.4750 F   0  0
   -3.8630   -8.2600   -1.9860 F   0  0
   -3.7730   -7.6040    0.2850 C   0  0
   -4.6390   -7.2360    1.0430 O   0  0
   -2.5410   -7.0180    0.3070 N   0  0
   -2.2750   -5.9340    1.2640 C   0  0  2  0  0  0
   -1.4160   -4.8400    0.6270 C   0  0  2  0  0  0
   -1.6700   -6.4810    2.5570 C   0  0
   -1.1350   -3.8360    1.5920 O   0  0
   -2.0960   -4.2230   -0.5430 C   0  0
   -0.4450   -2.7830    1.2070 C   0  0
   -1.6420   -4.4980   -1.8460 C   0  0
   -3.1910   -3.3630   -0.3520 C   0  0
   -0.5640   -1.5590    1.8960 C   0  0
    0.4200   -2.8630    0.1020 C   0  0
   -2.2830   -3.9160   -2.9530 C   0  0
   -3.8340   -2.7810   -1.4570 C   0  0
    0.1410   -0.4550    1.5140 N   0  0
    1.1430   -1.7210   -0.2850 C   0  0
   -3.3810   -3.0570   -2.7600 C   0  0
    0.9840   -0.5230    0.4430 C   0  0
   -4.0590   -2.4410   -3.9300 C   0  0
    1.7460    0.6930    0.0390 C   0  0
    2.5020    0.6700   -0.9040 O   0  0
    1.5760    1.8420    0.7600 N   0  0
    2.3240    3.0550    0.3730 C   0  0  1  0  0  0
    1.6100    4.3260    0.8850 C   0  0
    3.7790    2.9860    0.8730 C   0  0
    2.4120    5.5430    0.6070 N   0  0
    4.5450    4.2560    0.4750 C   0  0
    1.8440    6.6450    0.0250 C   0  0
    3.8500    5.5310    0.9770 C   0  0
    0.6700    6.6430   -0.2660 O   0  0
    2.7090    7.8520   -0.2420 C   0  0  2  0  0  0
    3.1130    8.5740    1.0530 C   0  0
    1.9430    8.9860   -0.9220 C   0  0
    2.0650    9.4810    1.3790 O   0  0
    1.4430    9.7810    0.2460 C   0  0
    0.5550   10.5960    0.1410 O   0  0
   -1.8260   -7.3220   -0.3220 H   0  0
   -3.2230   -5.5240    1.6150 H   0  0
   -0.4730   -5.2810    0.3090 H   0  0
   -2.3100   -7.2480    2.9860 H   0  0
   -0.6820   -6.9020    2.3710 H   0  0
   -1.5590   -5.6860    3.2950 H   0  0
   -0.8010   -5.1580   -2.0020 H   0  0
   -3.5450   -3.1480    0.6460 H   0  0
   -1.2260   -1.4900    2.7460 H   0  0
    0.5310   -3.7890   -0.4450 H   0  0
   -1.9300   -4.1330   -3.9510 H   0  0
   -4.6740   -2.1230   -1.3030 H   0  0
    1.8130   -1.7680   -1.1310 H   0  0
   -4.8960   -1.7910   -3.6740 H   0  0
   -4.4360   -3.2250   -4.5860 H   0  0
   -3.3400   -1.8500   -4.4980 H   0  0
    0.9510    1.8540    1.5390 H   0  0
    2.3420    3.0820   -0.7170 H   0  0
    0.6210    4.4160    0.4300 H   0  0
    1.4550    4.2700    1.9650 H   0  0
    4.2850    2.1090    0.4650 H   0  0
    3.7990    2.8830    1.9610 H   0  0
    4.6350    4.2930   -0.6130 H   0  0
    5.5630    4.2130    0.8610 H   0  0
    4.3520    6.4140    0.5780 H   0  0
    3.9220    5.5900    2.0630 H   0  0
    3.5720    7.5490   -0.8160 H   0  0
    4.0140    9.1510    0.8930 H   0  0
    3.2930    7.9080    1.8870 H   0  0
    2.6000    9.6000   -1.5220 H   0  0
    1.1330    8.6410   -1.5490 H   0  0
  1  2  1  0
  2  3  1  0
  2  4  1  0
  2  5  1  0
  5  6  2  0
  5  7  1  0
  7  8  1  0
  8  9  1  0
  8 10  1  0
  9 11  1  0
  9 12  1  0
 11 13  1  0
 12 14  2  0
 12 15  1  0
 13 16  2  0
 13 17  1  0
 14 18  1  0
 15 19  2  0
 16 20  1  0
 17 21  2  0
 18 22  2  0
 20 23  2  0
 22 24  1  0
 23 25  1  0
 25 26  2  0
 25 27  1  0
 28 27  1  0
 28 29  1  0
 28 30  1  0
 29 31  1  0
 30 32  1  0
 31 33  1  0
 31 34  1  0
 33 35  2  0
 36 33  1  0
 36 37  1  0
 36 38  1  0
 37 39  1  0
 38 40  1  0
 40 41  2  0
 19 22  1  0
 21 23  1  0
 32 34  1  0
 39 40  1  0
  7 42  1  0
  8 43  1  0
  9 44  1  0
 10 45  1  0
 10 46  1  0
 10 47  1  0
 14 48  1  0
 15 49  1  0
 16 50  1  0
 17 51  1  0
 18 52  1  0
 19 53  1  0
 21 54  1  0
 24 55  1  0
 24 56  1  0
 24 57  1  0
 27 58  1  0
 28 59  1  0
 29 60  1  0
 29 61  1  0
 30 62  1  0
 30 63  1  0
 32 64  1  0
 32 65  1  0
 34 66  1  0
 34 67  1  0
 36 68  1  0
 37 69  1  0
 37 70  1  0
 38 71  1  0
 38 72  1  0
M  END
> <Name>
CHEMBL4796205

> <IC50 nM>
34

> <Molecule_ChEMBL_ID>
CHEMBL4796205

> <Smiles>
Cc1ccc([C@@H](Oc2ccc(C(=O)N[C@@H]3CCCN(C(=O)[C@@H]4COC(=O)C4)C3)nc2)[C@H](C)NC(=O)C(F)(F)F)cc1

$$$$
CHEMBL219314
  SciTegic08162514323D

 56 58  0  0  1  0            999 V2000
    1.2560    6.5940   -0.5180 F   0  0
    1.2300    5.4670    0.1900 C   0  0
    0.2680    4.4820   -0.0860 C   0  0
    2.1700    5.2620    1.2150 C   0  0
    0.2420    3.2910    0.6620 C   0  0
    2.1450    4.0720    1.9630 C   0  0
    1.1820    3.0840    1.6900 C   0  0
   -0.7830    2.2560    0.3610 C   0  0
    1.1680    1.9730    2.3970 O   0  0
    0.1560    1.4180   -0.5080 C   0  0
   -1.9550    2.8380   -0.4300 C   0  0
   -1.2310    1.5230    1.6250 C   0  0
    2.2580    1.7250    3.2740 C   0  0
   -0.4880    0.1170   -0.9880 C   0  0  1  0  0  0
   -1.8340    0.3850   -1.3120 O   0  0
    0.2400   -0.2830   -2.2690 C   0  0
   -0.4630   -0.9810    0.0760 C   0  0
    1.5470   -0.5840   -1.9770 F   0  0
    0.1990    0.7540   -3.1640 F   0  0
   -0.3690   -1.3830   -2.8180 F   0  0
   -0.8460   -2.2870   -0.5020 N   0  0
    0.0610   -3.2890   -0.6870 C   0  0
   -2.2680   -2.4630   -0.8960 C   0  0
   -0.3710   -4.6210   -0.9860 C   0  0
    1.4590   -3.0330   -0.5940 C   0  0
   -2.7790   -3.8750   -0.5760 C   0  0
   -1.8260   -4.9570   -1.0310 C   0  0
    0.5820   -5.6410   -1.2380 C   0  0
    2.4000   -4.0610   -0.8260 C   0  0
   -2.3130   -6.0060   -1.3890 O   0  0
    1.9630   -5.3610   -1.1540 C   0  0
   -0.4550    4.6430   -0.8750 H   0  0
    2.9140    6.0160    1.4320 H   0  0
    2.8670    3.9180    2.7500 H   0  0
    1.0880    1.2150    0.0200 H   0  0
    0.5210    2.0020   -1.3530 H   0  0
   -2.2070    3.8480   -0.1010 H   0  0
   -2.8460    2.2190   -0.3120 H   0  0
   -1.7190    2.8850   -1.4920 H   0  0
   -1.3630    2.2050    2.4650 H   0  0
   -0.4940    0.7730    1.9160 H   0  0
   -2.1780    1.0120    1.4590 H   0  0
    2.1020    0.7560    3.7460 H   0  0
    3.1820    1.8420    2.7090 H   0  0
    2.2460    2.4840    4.0550 H   0  0
   -2.3570    0.2440   -0.5060 H   0  0
   -1.1390   -0.7400    0.8970 H   0  0
    0.5290   -1.0630    0.5200 H   0  0
   -2.3540   -2.2720   -1.9670 H   0  0
   -2.8890   -1.7210   -0.3930 H   0  0
    1.8360   -2.0490   -0.3510 H   0  0
   -3.7580   -4.0220   -1.0350 H   0  0
   -2.9260   -3.9770    0.5000 H   0  0
    0.2600   -6.6410   -1.4900 H   0  0
    3.4570   -3.8500   -0.7520 H   0  0
    2.6840   -6.1430   -1.3420 H   0  0
  1  2  1  0
  2  3  2  0
  2  4  1  0
  3  5  1  0
  4  6  2  0
  5  7  2  0
  5  8  1  0
  7  9  1  0
  8 10  1  0
  8 11  1  0
  8 12  1  0
  9 13  1  0
 10 14  1  0
 14 15  1  0
 14 16  1  0
 14 17  1  0
 16 18  1  0
 16 19  1  0
 16 20  1  0
 17 21  1  0
 21 22  1  0
 21 23  1  0
 22 24  2  0
 22 25  1  0
 23 26  1  0
 24 27  1  0
 24 28  1  0
 25 29  2  0
 27 30  2  0
 28 31  2  0
  6  7  1  0
 26 27  1  0
 29 31  1  0
  3 32  1  0
  4 33  1  0
  6 34  1  0
 10 35  1  0
 10 36  1  0
 11 37  1  0
 11 38  1  0
 11 39  1  0
 12 40  1  0
 12 41  1  0
 12 42  1  0
 13 43  1  0
 13 44  1  0
 13 45  1  0
 15 46  1  0
 17 47  1  0
 17 48  1  0
 23 49  1  0
 23 50  1  0
 25 51  1  0
 26 52  1  0
 26 53  1  0
 28 54  1  0
 29 55  1  0
 31 56  1  0
M  END
> <Name>
CHEMBL219314

> <IC50 nM>
4

> <Molecule_ChEMBL_ID>
CHEMBL219314

> <Smiles>
COc1ccc(F)cc1C(C)(C)CC(O)(CN1CCC(=O)c2ccccc21)C(F)(F)F

$$$$
CHEMBL386915
  SciTegic08162514323D

 55 57  0  0  1  0            999 V2000
    0.3790    4.8360    4.2020 F   0  0
    0.9120    3.9660    3.3470 C   0  0
    0.2350    2.7710    3.0440 C   0  0
    2.1530    4.2400    2.7460 C   0  0
    0.7980    1.8520    2.1400 C   0  0
    2.7150    3.3220    1.8440 C   0  0
    2.0410    2.1260    1.5380 C   0  0
    0.0730    0.5920    1.8270 C   0  0
    2.5780    1.2710    0.6900 O   0  0
   -0.5410    1.1330    0.5350 C   0  0
   -0.9790    0.2680    2.8890 C   0  0
    1.0390   -0.5680    1.5810 C   0  0
    3.8130    1.6220    0.0820 C   0  0
   -1.5420    0.1640   -0.0930 C   0  0  1  0  0  0
   -1.2020   -1.1440    0.3080 O   0  0
   -2.9100    0.5050    0.4990 C   0  0
   -1.5320    0.2140   -1.6220 C   0  0
   -3.1380   -0.2760    1.6020 F   0  0
   -3.8850    0.2700   -0.4370 F   0  0
   -2.9340    1.8270    0.8620 F   0  0
   -1.5500   -1.1480   -2.1960 N   0  0
   -0.4110   -1.8740   -2.3730 C   0  0
   -2.8670   -1.7090   -2.5930 C   0  0
   -0.5080   -3.2310   -2.8090 C   0  0
    0.8790   -1.3150   -2.1460 C   0  0
   -2.8840   -3.2380   -2.4250 C   0  0
   -1.7090   -3.8190   -2.9980 O   0  0
    0.6630   -3.9850   -3.0530 C   0  0
    2.0430   -2.0830   -2.3770 C   0  0
    1.9370   -3.4130   -2.8370 C   0  0
   -0.7190    2.5610    3.5060 H   0  0
    2.6770    5.1570    2.9760 H   0  0
    3.6680    3.5360    1.3850 H   0  0
    0.2380    1.3990   -0.1790 H   0  0
   -1.0010    2.1060    0.7060 H   0  0
   -0.5670    0.3200    3.8970 H   0  0
   -1.3780   -0.7350    2.7430 H   0  0
   -1.8110    0.9690    2.8330 H   0  0
    1.9530   -0.4650    2.1650 H   0  0
    1.3190   -0.6190    0.5290 H   0  0
    0.5770   -1.5180    1.8490 H   0  0
    4.1400    0.7850   -0.5350 H   0  0
    3.6820    2.5750   -0.4310 H   0  0
    4.5530    1.7660    0.8690 H   0  0
   -1.9960   -1.6910    0.2030 H   0  0
   -0.6510    0.7440   -1.9840 H   0  0
   -2.3910    0.7710   -1.9950 H   0  0
   -3.6610   -1.2570   -1.9970 H   0  0
   -3.0570   -1.4440   -3.6340 H   0  0
    0.9980   -0.2990   -1.7980 H   0  0
   -2.9100   -3.5010   -1.3660 H   0  0
   -3.7600   -3.6850   -2.8940 H   0  0
    0.5870   -5.0050   -3.4030 H   0  0
    3.0180   -1.6500   -2.2030 H   0  0
    2.8280   -3.9940   -3.0230 H   0  0
  1  2  1  0
  2  3  2  0
  2  4  1  0
  3  5  1  0
  4  6  2  0
  5  7  2  0
  5  8  1  0
  7  9  1  0
  8 10  1  0
  8 11  1  0
  8 12  1  0
  9 13  1  0
 10 14  1  0
 14 15  1  0
 14 16  1  0
 14 17  1  0
 16 18  1  0
 16 19  1  0
 16 20  1  0
 17 21  1  0
 21 22  1  0
 21 23  1  0
 22 24  2  0
 22 25  1  0
 23 26  1  0
 24 27  1  0
 24 28  1  0
 25 29  2  0
 28 30  2  0
  6  7  1  0
 26 27  1  0
 29 30  1  0
  3 31  1  0
  4 32  1  0
  6 33  1  0
 10 34  1  0
 10 35  1  0
 11 36  1  0
 11 37  1  0
 11 38  1  0
 12 39  1  0
 12 40  1  0
 12 41  1  0
 13 42  1  0
 13 43  1  0
 13 44  1  0
 15 45  1  0
 17 46  1  0
 17 47  1  0
 23 48  1  0
 23 49  1  0
 25 50  1  0
 26 51  1  0
 26 52  1  0
 28 53  1  0
 29 54  1  0
 30 55  1  0
M  END
> <Name>
CHEMBL386915

> <IC50 nM>
15

> <Molecule_ChEMBL_ID>
CHEMBL386915

> <Smiles>
COc1ccc(F)cc1C(C)(C)CC(O)(CN1CCOc2ccccc21)C(F)(F)F

$$$$
CHEMBL416869
  SciTegic08162514323D

 45 48  0  0  1  0            999 V2000
   -3.6410    0.9200   -0.9390 O   0  0
   -4.2810    0.2580   -0.1580 C   0  0
   -3.6540   -0.6370    0.6640 N   0  0
   -5.7770    0.3940   -0.0700 C   0  0
   -2.3240   -0.7810    0.6070 C   0  0
   -1.4820    0.3490    0.4880 C   0  0
   -1.7420   -2.0690    0.6620 C   0  0
   -0.0660    0.2110    0.4280 C   0  0
   -0.3400   -2.2230    0.6150 C   0  0
    0.5200   -1.0900    0.5270 C   0  0
    0.8200    1.4100    0.2850 C   0  0  1  0  0  0
    2.0020   -1.2030    0.5290 C   0  0
    2.1290    1.0920   -0.2150 O   0  0
    0.2580    2.4570   -0.6170 C   0  0
    2.7460   -0.0610    0.1070 C   0  0
    2.7210   -2.3790    0.9200 C   0  0
   -0.0920    3.7170   -0.1000 C   0  0
    0.0740    2.1830   -1.9840 C   0  0
    4.1540   -0.1150    0.0060 C   0  0
    2.1170   -3.4730    1.4020 O   0  0
    4.1330   -2.4140    0.8220 C   0  0
   -0.6230    4.7030   -0.9510 C   0  0
   -0.4570    3.1700   -2.8340 C   0  0
    4.8480   -1.2910    0.3590 C   0  0
    2.8070   -4.7110    1.3090 C   0  0
   -0.8070    4.4300   -2.3160 C   0  0
   -4.1880   -1.1840    1.3110 H   0  0
   -6.1880    1.1310   -0.7620 H   0  0
   -6.0630    0.6930    0.9390 H   0  0
   -6.2520   -0.5630   -0.2810 H   0  0
   -1.9260    1.3360    0.4450 H   0  0
   -2.3610   -2.9510    0.7420 H   0  0
    0.0250   -3.2350    0.6450 H   0  0
    0.9470    1.8480    1.2770 H   0  0
    0.0450    3.9340    0.9490 H   0  0
    0.3400    1.2170   -2.3890 H   0  0
    4.7050    0.7460   -0.3400 H   0  0
    4.6700   -3.3090    1.1050 H   0  0
   -0.8910    5.6700   -0.5530 H   0  0
   -0.5980    2.9590   -3.8850 H   0  0
    5.9240   -1.3300    0.2790 H   0  0
    2.1090   -5.5100    1.5630 H   0  0
    3.2700   -4.7700    0.3240 H   0  0
    3.6040   -4.7150    2.0530 H   0  0
   -1.2150    5.1870   -2.9710 H   0  0
  1  2  2  0
  2  3  1  0
  2  4  1  0
  3  5  1  0
  5  6  2  0
  5  7  1  0
  6  8  1  0
  7  9  2  0
  8 10  2  0
  8 11  1  0
 10 12  1  0
 11 13  1  0
 11 14  1  0
 12 15  2  0
 12 16  1  0
 14 17  2  0
 14 18  1  0
 15 19  1  0
 16 20  1  0
 16 21  2  0
 17 22  1  0
 18 23  2  0
 19 24  2  0
 20 25  1  0
 22 26  2  0
  9 10  1  0
 13 15  1  0
 21 24  1  0
 23 26  1  0
  3 27  1  0
  4 28  1  0
  4 29  1  0
  4 30  1  0
  6 31  1  0
  7 32  1  0
  9 33  1  0
 11 34  1  0
 17 35  1  0
 18 36  1  0
 19 37  1  0
 21 38  1  0
 22 39  1  0
 23 40  1  0
 24 41  1  0
 25 42  1  0
 25 43  1  0
 25 44  1  0
 26 45  1  0
M  END
> <Name>
CHEMBL416869

> <IC50 nM>
117

> <Molecule_ChEMBL_ID>
CHEMBL416869

> <Smiles>
COc1cccc2c1-c1ccc(NC(C)=O)cc1C(c1ccccc1)O2

$$$$
CHEMBL185524
  SciTegic08162514323D

 76 79  0  0  0  0            999 V2000
    4.0100   -3.6150    1.9410 S   0  0
    2.9730   -3.0310    2.7750 O   0  0
    3.7380   -4.9940    1.5740 O   0  0
    4.0780   -2.7500    0.5720 N   0  0
    5.5650   -3.5470    2.8200 C   0  0
    2.9810   -2.6740   -0.2460 C   0  0
    3.0120   -1.9300   -1.4510 C   0  0
    1.8050   -3.3550    0.1270 C   0  0
    1.8570   -1.8750   -2.2700 C   0  0
    4.2560   -1.2030   -1.8540 C   0  0
    0.6660   -3.2990   -0.6890 C   0  0
    1.8500   -1.1640   -3.4430 N   0  0
    0.6910   -2.5610   -1.8830 C   0  0
    1.9450    0.3030   -3.4400 C   0  0
    1.7440   -1.8690   -4.7290 C   0  0
    1.4470    0.8810   -2.1640 C   0  0
    2.5350   -3.1290   -4.7290 C   0  0
    2.3340    1.5490   -1.3010 C   0  0
    0.0900    0.7600   -1.8180 C   0  0
    1.8770   -4.3710   -4.7290 C   0  0
    3.9400   -3.0780   -4.7290 C   0  0
    1.8630    2.0940   -0.0960 C   0  0
   -0.3790    1.3070   -0.6110 C   0  0
    2.6230   -5.5630   -4.7290 C   0  0
    4.6860   -4.2700   -4.7290 C   0  0
    0.5060    1.9750    0.2540 C   0  0
    4.0270   -5.5120   -4.7290 C   0  0
    0.0640    2.4860    1.3850 O   0  0
   -1.1430    3.0140    1.3960 C   0  0
   -1.9630    2.8790    2.5290 C   0  0
   -1.6170    3.7170    0.2730 C   0  0
   -3.2520    3.4400    2.5450 C   0  0
   -2.9040    4.2790    0.2850 C   0  0
   -4.0180    3.3110    3.6090 O   0  0
   -3.7210    4.1410    1.4200 C   0  0
   -5.3130    3.8970    3.5760 C   0  0
   -6.0270    3.6290    4.9000 C   0  0
   -7.3710    4.2230    4.9020 N   0  0
   -8.1640    4.0860    6.0060 C   0  0
   -7.7620    3.4840    6.9750 O   0  0
   -9.5390    4.6990    5.9900 C   0  0
    4.9200   -2.2710    0.3260 H   0  0
    5.5780   -4.1110    3.7520 H   0  0
    5.8030   -2.5100    3.0570 H   0  0
    6.3590   -3.9340    2.1840 H   0  0
    1.7640   -3.9300    1.0430 H   0  0
    4.2500   -0.8400   -2.8830 H   0  0
    5.1150   -1.8650   -1.7400 H   0  0
    4.4040   -0.3460   -1.1990 H   0  0
   -0.2320   -3.8220   -0.3980 H   0  0
   -0.1990   -2.5310   -2.4960 H   0  0
    2.9840    0.5940   -3.5900 H   0  0
    1.3630    0.7010   -4.2700 H   0  0
    2.1020   -1.2170   -5.5260 H   0  0
    0.6970   -2.0960   -4.9280 H   0  0
    3.3790    1.6450   -1.5610 H   0  0
   -0.5960    0.2480   -2.4770 H   0  0
    0.7970   -4.4180   -4.7290 H   0  0
    4.4510   -2.1270   -4.7290 H   0  0
    2.5470    2.6060    0.5640 H   0  0
   -1.4220    1.2110   -0.3500 H   0  0
    2.1170   -6.5180   -4.7290 H   0  0
    5.7660   -4.2300   -4.7290 H   0  0
    4.6020   -6.4260   -4.7290 H   0  0
   -1.6020    2.3400    3.3930 H   0  0
   -0.9900    3.8240   -0.6000 H   0  0
   -3.2660    4.8180   -0.5780 H   0  0
   -4.7090    4.5740    1.4280 H   0  0
   -5.1970    4.9670    3.4080 H   0  0
   -5.8630    3.4570    2.7440 H   0  0
   -6.1070    2.5590    5.0860 H   0  0
   -5.4550    4.0350    5.7360 H   0  0
   -7.7110    4.7230    4.1060 H   0  0
  -10.0430    4.5020    6.9360 H   0  0
   -9.4650    5.7700    5.7910 H   0  0
  -10.1330    4.2540    5.1930 H   0  0
  1  2  2  0
  1  3  2  0
  1  4  1  0
  1  5  1  0
  4  6  1  0
  6  7  2  0
  6  8  1  0
  7  9  1  0
  7 10  1  0
  8 11  2  0
  9 12  1  0
  9 13  2  0
 12 14  1  0
 12 15  1  0
 14 16  1  0
 15 17  1  0
 16 18  2  0
 16 19  1  0
 17 20  2  0
 17 21  1  0
 18 22  1  0
 19 23  2  0
 20 24  1  0
 21 25  2  0
 22 26  2  0
 24 27  2  0
 26 28  1  0
 28 29  1  0
 29 30  2  0
 29 31  1  0
 30 32  1  0
 31 33  2  0
 32 34  1  0
 32 35  2  0
 34 36  1  0
 36 37  1  0
 37 38  1  0
 38 39  1  0
 39 40  2  0
 39 41  1  0
 11 13  1  0
 23 26  1  0
 25 27  1  0
 33 35  1  0
  4 42  1  0
  5 43  1  0
  5 44  1  0
  5 45  1  0
  8 46  1  0
 10 47  1  0
 10 48  1  0
 10 49  1  0
 11 50  1  0
 13 51  1  0
 14 52  1  0
 14 53  1  0
 15 54  1  0
 15 55  1  0
 18 56  1  0
 19 57  1  0
 20 58  1  0
 21 59  1  0
 22 60  1  0
 23 61  1  0
 24 62  1  0
 25 63  1  0
 27 64  1  0
 30 65  1  0
 31 66  1  0
 33 67  1  0
 35 68  1  0
 36 69  1  0
 36 70  1  0
 37 71  1  0
 37 72  1  0
 38 73  1  0
 41 74  1  0
 41 75  1  0
 41 76  1  0
M  END
> <Name>
CHEMBL185524

> <IC50 nM>
2.9

> <Molecule_ChEMBL_ID>
CHEMBL185524

> <Smiles>
CC(=O)NCCOc1cccc(Oc2ccc(CN(Cc3ccccc3)c3cccc(NS(C)(=O)=O)c3C)cc2)c1

$$$$
CHEMBL3138128
  SciTegic08162514323D

145152  0  0  1  0            999 V2000
   12.2760    5.5800    7.5920 S   0  0
   11.7830    6.4060    6.5020 O   0  0
   11.7290    5.9530    8.8850 O   0  0
   11.8190    4.0570    7.2910 N   0  0
   14.0570    5.7150    7.6580 C   0  0
   10.4880    3.7210    7.3090 C   0  0
   10.0670    2.3730    7.2030 C   0  0
    9.5310    4.7480    7.4320 C   0  0
    8.6840    2.0700    7.2250 C   0  0
   11.0760    1.2770    7.0720 C   0  0
    8.1640    4.4400    7.4510 C   0  0
    8.2380    0.7750    7.1250 N   0  0
    7.7400    3.1060    7.3480 C   0  0
    8.4080    0.0100    5.8830 C   0  0
    7.5780    0.1370    8.2740 C   0  0
    8.2850    0.8770    4.6840 C   0  0
    8.4730    0.0800    9.4570 C   0  0
    9.4180    1.1540    3.8970 C   0  0
    7.0390    1.4240    4.3340 C   0  0
    8.3560    1.0450   10.4750 C   0  0
    9.4400   -0.9360    9.5630 C   0  0
    9.3010    1.9750    2.7620 C   0  0
    6.9240    2.2440    3.1990 C   0  0
    9.2010    0.9920   11.5960 C   0  0
   10.2870   -0.9860   10.6840 C   0  0
    8.0550    2.5220    2.4100 C   0  0
   10.1680   -0.0230   11.7010 C   0  0
    7.9450    3.2930    1.3460 O   0  0
    6.8500    3.1930    0.6190 C   0  0
    6.2850    4.3400    0.0330 C   0  0
    6.2400    1.9410    0.4260 C   0  0
    5.1150    4.2360   -0.7400 C   0  0
    5.0720    1.8360   -0.3480 C   0  0
    4.5080    2.9820   -0.9320 C   0  0
    3.2730    2.8730   -1.7500 C   0  0
    2.8110    1.4200   -1.8750 C   0  0
    1.5680    1.2850   -2.7150 C   0  0
    1.0550    2.2520   -3.2270 O   0  0
    1.0290    0.0430   -2.8930 N   0  0
   -0.1840   -0.1090   -3.7110 C   0  0
   -0.6190   -1.5720   -3.7790 C   0  0
   -1.7810   -1.6500   -4.5740 O   0  0
   -2.2850   -2.9670   -4.6970 C   0  0  1  0  0  0
   -3.0350   -3.3770   -3.4080 C   0  0
   -3.1700   -3.0450   -5.9490 C   0  0
   -4.5800   -3.2620   -3.4860 C   0  0  1  0  0  0
   -4.4980   -2.2680   -5.8300 C   0  0
   -5.0470   -2.0920   -4.3830 C   0  0  1  0  0  0
   -5.2420   -4.5860   -3.9040 C   0  0
   -6.6020   -1.9880   -4.3610 C   0  0  2  0  0  0
   -4.4940   -0.7830   -3.7890 C   0  0
   -6.7740   -4.4960   -3.8540 C   0  0  1  0  0  0
   -7.3380   -3.3180   -4.6860 C   0  0  1  0  0  0
   -7.1250   -0.7910   -5.2050 C   0  0
   -7.2910   -5.7230   -4.3280 O   0  0
   -8.8460   -3.1060   -4.3710 C   0  0  1  0  0  0
   -8.5490   -0.9730   -5.7700 C   0  0  2  0  0  0
   -9.4380   -1.7210   -4.7560 C   0  0  1  0  0  0
   -9.7910   -4.0900   -5.0630 C   0  0
   -8.4630   -1.6740   -6.9980 O   0  0
  -10.8620   -2.0020   -5.3030 C   0  0  1  0  0  0
   -9.5510   -0.9080   -3.4590 C   0  0
  -11.1470   -3.4300   -4.8570 C   0  0
  -11.9750   -1.0590   -4.8420 C   0  0  2  0  0  0
  -13.3340   -1.6880   -5.1470 C   0  0
  -11.7930    0.3070   -5.5080 C   0  0
  -14.4980   -0.7340   -4.8830 C   0  0
  -15.8360   -1.4120   -5.0020 C   0  0
  -15.9160   -2.5840   -5.2930 O   0  0
  -16.8890   -0.6330   -4.7700 O   0  0
   12.5080    3.3570    7.0940 H   0  0
   14.4240    6.7230    7.8580 H   0  0
   14.4810    5.3890    6.7090 H   0  0
   14.4420    5.0590    8.4380 H   0  0
    9.8340    5.7830    7.5120 H   0  0
   10.7050    0.2910    7.3420 H   0  0
   11.9360    1.4960    7.7070 H   0  0
   11.4300    1.2300    6.0410 H   0  0
    7.4340    5.2310    7.5470 H   0  0
    6.6800    2.8930    7.3650 H   0  0
    9.3890   -0.4690    5.8870 H   0  0
    7.6540   -0.7770    5.8400 H   0  0
    7.2790   -0.8750    7.9960 H   0  0
    6.6760    0.6930    8.5240 H   0  0
   10.3790    0.7360    4.1580 H   0  0
    6.1640    1.2150    4.9340 H   0  0
    7.6150    1.8280   10.4010 H   0  0
    9.5370   -1.6800    8.7850 H   0  0
   10.1720    2.1860    2.1600 H   0  0
    5.9630    2.6620    2.9340 H   0  0
    9.1090    1.7320   12.3770 H   0  0
   11.0290   -1.7680   10.7640 H   0  0
   10.8180   -0.0640   12.5630 H   0  0
    6.7480    5.3070    0.1780 H   0  0
    6.6700    1.0570    0.8730 H   0  0
    4.6880    5.1230   -1.1860 H   0  0
    4.6090    0.8690   -0.4900 H   0  0
    2.4900    3.4900   -1.3110 H   0  0
    3.4490    3.3070   -2.7340 H   0  0
    2.6070    1.0800   -0.8590 H   0  0
    3.6040    0.7970   -2.2830 H   0  0
    1.4550   -0.7560   -2.4690 H   0  0
   -0.9770    0.5100   -3.2930 H   0  0
    0.0080    0.2850   -4.7090 H   0  0
    0.1540   -2.1820   -4.2480 H   0  0
   -0.8610   -1.9490   -2.7870 H   0  0
   -1.4100   -3.6040   -4.8280 H   0  0
   -2.6720   -2.7930   -2.5590 H   0  0
   -2.7700   -4.4040   -3.1620 H   0  0
   -2.6230   -2.7090   -6.8320 H   0  0
   -3.3850   -4.0940   -6.1430 H   0  0
   -4.9260   -3.0650   -2.4710 H   0  0
   -5.2330   -2.7720   -6.4570 H   0  0
   -4.3650   -1.2850   -6.2870 H   0  0
   -4.9020   -5.3850   -3.2440 H   0  0
   -4.9240   -4.8690   -4.9060 H   0  0
   -6.8710   -1.7680   -3.3260 H   0  0
   -3.6110   -0.9570   -3.1760 H   0  0
   -5.2440   -0.2970   -3.1640 H   0  0
   -4.2210   -0.0860   -4.5820 H   0  0
   -7.0820   -4.3990   -2.8120 H   0  0
   -7.2010   -3.5390   -5.7440 H   0  0
   -6.4450   -0.5510   -6.0230 H   0  0
   -7.1080    0.0980   -4.5720 H   0  0
   -7.9530   -6.0240   -3.6860 H   0  0
   -8.9810   -3.2520   -3.3070 H   0  0
   -8.9790    0.0020   -6.0060 H   0  0
   -9.7700   -5.0740   -4.6190 H   0  0
   -9.5650   -4.1880   -6.1150 H   0  0
   -8.0060   -1.0940   -7.6270 H   0  0
  -10.8630   -1.9940   -6.3830 H   0  0
  -10.1640   -1.4140   -2.7130 H   0  0
   -9.9980    0.0660   -3.6540 H   0  0
   -8.5650   -0.7400   -3.0230 H   0  0
  -11.9240   -3.8970   -5.4450 H   0  0
  -11.4400   -3.4710   -3.8160 H   0  0
  -11.8150   -0.9880   -3.7680 H   0  0
  -13.4630   -2.6170   -4.5900 H   0  0
  -13.3650   -2.0610   -6.1720 H   0  0
  -12.4810    1.0350   -5.0820 H   0  0
  -10.7720    0.6640   -5.3810 H   0  0
  -11.9940    0.2420   -6.5760 H   0  0
  -14.4140    0.0570   -5.6290 H   0  0
  -14.4050   -0.2730   -3.8980 H   0  0
  -17.7780   -1.0080   -4.8300 H   0  0
  1  2  2  0
  1  3  2  0
  1  4  1  0
  1  5  1  0
  4  6  1  0
  6  7  2  0
  6  8  1  0
  7  9  1  0
  7 10  1  0
  8 11  2  0
  9 12  1  0
  9 13  2  0
 12 14  1  0
 12 15  1  0
 14 16  1  0
 15 17  1  0
 16 18  2  0
 16 19  1  0
 17 20  2  0
 17 21  1  0
 18 22  1  0
 19 23  2  0
 20 24  1  0
 21 25  2  0
 22 26  2  0
 24 27  2  0
 26 28  1  0
 28 29  1  0
 29 30  2  0
 29 31  1  0
 30 32  1  0
 31 33  2  0
 32 34  2  0
 34 35  1  0
 35 36  1  0
 36 37  1  0
 37 38  2  0
 37 39  1  0
 39 40  1  0
 40 41  1  0
 41 42  1  0
 43 42  1  0
 43 44  1  0
 43 45  1  0
 46 44  1  0
 45 47  1  0
 46 48  1  0
 46 49  1  0
 48 50  1  0
 48 51  1  0
 49 52  1  0
 53 50  1  0
 50 54  1  0
 52 55  1  0
 53 56  1  0
 54 57  1  0
 56 58  1  0
 56 59  1  0
 57 60  1  0
 58 61  1  0
 58 62  1  0
 59 63  1  0
 61 64  1  0
 64 65  1  0
 64 66  1  0
 65 67  1  0
 67 68  1  0
 68 69  2  0
 68 70  1  0
 11 13  1  0
 23 26  1  0
 25 27  1  0
 33 34  1  0
 47 48  1  0
 52 53  1  0
 57 58  1  0
 61 63  1  0
  4 71  1  0
  5 72  1  0
  5 73  1  0
  5 74  1  0
  8 75  1  0
 10 76  1  0
 10 77  1  0
 10 78  1  0
 11 79  1  0
 13 80  1  0
 14 81  1  0
 14 82  1  0
 15 83  1  0
 15 84  1  0
 18 85  1  0
 19 86  1  0
 20 87  1  0
 21 88  1  0
 22 89  1  0
 23 90  1  0
 24 91  1  0
 25 92  1  0
 27 93  1  0
 30 94  1  0
 31 95  1  0
 32 96  1  0
 33 97  1  0
 35 98  1  0
 35 99  1  0
 36100  1  0
 36101  1  0
 39102  1  0
 40103  1  0
 40104  1  0
 41105  1  0
 41106  1  0
 43107  1  0
 44108  1  0
 44109  1  0
 45110  1  0
 45111  1  0
 46112  1  0
 47113  1  0
 47114  1  0
 49115  1  0
 49116  1  0
 50117  1  0
 51118  1  0
 51119  1  0
 51120  1  0
 52121  1  0
 53122  1  0
 54123  1  0
 54124  1  0
 55125  1  0
 56126  1  0
 57127  1  0
 59128  1  0
 59129  1  0
 60130  1  0
 61131  1  0
 62132  1  0
 62133  1  0
 62134  1  0
 63135  1  0
 63136  1  0
 64137  1  0
 65138  1  0
 65139  1  0
 66140  1  0
 66141  1  0
 66142  1  0
 67143  1  0
 67144  1  0
 70145  1  0
M  END
> <Name>
CHEMBL3138128

> <IC50 nM>
17

> <Molecule_ChEMBL_ID>
CHEMBL3138128

> <Smiles>
Cc1c(NS(C)(=O)=O)cccc1N(Cc1ccccc1)Cc1ccc(Oc2ccc(CCC(=O)NCCO[C@@H]3CC[C@]4(C)[C@H](C3)C[C@H](O)[C@@H]3[C@@H]4C[C@@H](O)[C@]4(C)[C@H]3CC[C@H]4[C@@H](C)CCC(=O)O)cc2)cc1

$$$$
CHEMBL182472
  SciTegic08162514323D

 71 74  0  0  0  0            999 V2000
   -5.0880   -0.3710   -3.4790 S   0  0
   -4.8810    0.8650   -4.2110 O   0  0
   -4.2250   -1.4510   -3.9220 O   0  0
   -4.7440   -0.0800   -1.9220 N   0  0
   -6.7930   -0.8770   -3.6720 C   0  0
   -4.0650   -1.0140   -1.1820 C   0  0
   -2.6900   -1.2660   -1.4020 C   0  0
   -4.7600   -1.7320   -0.1900 C   0  0
   -2.0240   -2.2380   -0.6170 C   0  0
   -1.9430   -0.5080   -2.4550 C   0  0
   -4.0940   -2.6950    0.5840 C   0  0
   -0.6900   -2.5100   -0.8010 N   0  0
   -2.7310   -2.9470    0.3710 C   0  0
    0.2500   -2.4860    0.3300 C   0  0
   -0.1820   -2.8300   -2.1430 C   0  0
    0.1740   -1.2030    1.0780 C   0  0
    0.6070   -4.0900   -2.1430 C   0  0
   -0.4940   -1.1500    2.3140 C   0  0
    0.7670   -0.0450    0.5510 C   0  0
   -0.0510   -5.3320   -2.1430 C   0  0
    2.0140   -4.0390   -2.1430 C   0  0
   -0.5670    0.0630    3.0190 C   0  0
    0.6950    1.1680    1.2600 C   0  0
    0.6970   -6.5240   -2.1430 C   0  0
    2.7600   -5.2310   -2.1430 C   0  0
    0.0270    1.2250    2.4960 C   0  0
    2.1010   -6.4730   -2.1430 C   0  0
   -0.0410    2.3610    3.1600 O   0  0
    0.9960    3.1720    3.1050 C   0  0
    2.3010    2.6490    3.0660 C   0  0
    0.8050    4.5650    3.0900 C   0  0
    3.4080    3.5120    3.0100 C   0  0
    1.9120    5.4300    3.0330 C   0  0
    3.2150    4.9040    2.9920 C   0  0
    4.3850    5.8180    2.9340 C   0  0
    4.8530    6.0370    1.4940 C   0  0
    6.1090    6.8650    1.4220 C   0  0
    6.0680    8.0330    1.1190 O   0  0
    7.2340    6.2130    1.7070 O   0  0
   -5.0290    0.7810   -1.5000 H   0  0
   -7.0840   -1.0860   -4.7030 H   0  0
   -7.4490   -0.0960   -3.2930 H   0  0
   -6.9730   -1.7790   -3.0860 H   0  0
   -5.8110   -1.5530   -0.0080 H   0  0
   -2.5220    0.3690   -2.7480 H   0  0
   -0.9510   -0.2520   -2.0840 H   0  0
   -1.8200   -1.1370   -3.3360 H   0  0
   -4.6310   -3.2420    1.3440 H   0  0
   -2.2380   -3.6930    0.9780 H   0  0
    1.2640   -2.6270   -0.0450 H   0  0
    0.0230   -3.3130    1.0020 H   0  0
    0.4430   -2.0100   -2.4940 H   0  0
   -1.0220   -2.9280   -2.8300 H   0  0
   -0.9530   -2.0370    2.7250 H   0  0
    1.2830   -0.0800   -0.3990 H   0  0
   -1.1290   -5.3790   -2.1430 H   0  0
    2.5250   -3.0880   -2.1430 H   0  0
   -1.0800    0.1000    3.9710 H   0  0
    1.1520    2.0570    0.8500 H   0  0
    0.1910   -7.4790   -2.1430 H   0  0
    3.8380   -5.1910   -2.1430 H   0  0
    2.6760   -7.3890   -2.1430 H   0  0
    2.4550    1.5800    3.0800 H   0  0
   -0.1930    4.9750    3.1190 H   0  0
    4.4080    3.1020    2.9800 H   0  0
    1.7540    6.5000    3.0190 H   0  0
    5.1910    5.4160    3.5450 H   0  0
    4.1290    6.7680    3.4040 H   0  0
    4.0390    6.5570    0.9880 H   0  0
    5.0080    5.0840    0.9900 H   0  0
    7.1890    5.2810    1.9610 H   0  0
  1  2  2  0
  1  3  2  0
  1  4  1  0
  1  5  1  0
  4  6  1  0
  6  7  2  0
  6  8  1  0
  7  9  1  0
  7 10  1  0
  8 11  2  0
  9 12  1  0
  9 13  2  0
 12 14  1  0
 12 15  1  0
 14 16  1  0
 15 17  1  0
 16 18  2  0
 16 19  1  0
 17 20  2  0
 17 21  1  0
 18 22  1  0
 19 23  2  0
 20 24  1  0
 21 25  2  0
 22 26  2  0
 24 27  2  0
 26 28  1  0
 28 29  1  0
 29 30  2  0
 29 31  1  0
 30 32  1  0
 31 33  2  0
 32 34  2  0
 34 35  1  0
 35 36  1  0
 36 37  1  0
 37 38  2  0
 37 39  1  0
 11 13  1  0
 23 26  1  0
 25 27  1  0
 33 34  1  0
  4 40  1  0
  5 41  1  0
  5 42  1  0
  5 43  1  0
  8 44  1  0
 10 45  1  0
 10 46  1  0
 10 47  1  0
 11 48  1  0
 13 49  1  0
 14 50  1  0
 14 51  1  0
 15 52  1  0
 15 53  1  0
 18 54  1  0
 19 55  1  0
 20 56  1  0
 21 57  1  0
 22 58  1  0
 23 59  1  0
 24 60  1  0
 25 61  1  0
 27 62  1  0
 30 63  1  0
 31 64  1  0
 32 65  1  0
 33 66  1  0
 35 67  1  0
 35 68  1  0
 36 69  1  0
 36 70  1  0
 39 71  1  0
M  END
> <Name>
CHEMBL182472

> <IC50 nM>
34

> <Molecule_ChEMBL_ID>
CHEMBL182472

> <Smiles>
Cc1c(NS(C)(=O)=O)cccc1N(Cc1ccccc1)Cc1ccc(Oc2ccc(CCC(=O)O)cc2)cc1

$$$$
CHEMBL67864
  SciTegic08162514323D

 55 57  0  0  0  0            999 V2000
   -0.6880   -2.5980    3.6350 S   0  0
   -1.6450   -1.7240    4.2910 O   0  0
   -1.3170   -3.6410    2.8400 O   0  0
    0.1930   -1.6850    2.6270 N   0  0
    0.3460   -3.3610    4.8770 C   0  0
   -0.4020   -1.0740    1.5530 C   0  0
    0.3570   -0.3550    0.6010 C   0  0
   -1.7990   -1.1720    1.4060 C   0  0
   -0.2930    0.2640   -0.4940 C   0  0
    1.8420   -0.2480    0.7540 C   0  0
   -2.4400   -0.5580    0.3200 C   0  0
    0.4280    0.9670   -1.4300 N   0  0
   -1.6950    0.1580   -0.6310 C   0  0
    0.6130    0.4440   -2.7910 C   0  0
    1.0250    2.2600   -1.0760 C   0  0
   -2.3280    0.7250   -1.6430 O   0  0
    1.4020   -0.8160   -2.7910 C   0  0
    0.1500    3.0350   -0.1580 C   0  0
   -3.7170    0.4670   -1.7870 C   0  0
    0.7440   -2.0580   -2.7910 C   0  0
    2.8070   -0.7650   -2.7910 C   0  0
    0.5040    3.1860    1.1950 C   0  0
   -1.0330    3.6210   -0.6430 C   0  0
    1.4900   -3.2500   -2.7910 C   0  0
    3.5550   -1.9570   -2.7910 C   0  0
   -0.3260    3.9180    2.0600 C   0  0
   -1.8630    4.3540    0.2240 C   0  0
    2.8960   -3.1990   -2.7910 C   0  0
   -1.5080    4.5040    1.5760 C   0  0
    1.1740   -1.5660    2.7890 H   0  0
   -0.1950   -3.9900    5.5860 H   0  0
    0.8610   -2.5900    5.4450 H   0  0
    1.1000   -3.9800    4.3930 H   0  0
   -2.3950   -1.7170    2.1250 H   0  0
    2.3140   -1.1370    1.1740 H   0  0
    2.0820    0.5940    1.4000 H   0  0
    2.2950   -0.0600   -0.2210 H   0  0
   -3.5100   -0.6390    0.2170 H   0  0
    1.1230    1.1940   -3.3970 H   0  0
   -0.3630    0.2620   -3.2420 H   0  0
    1.1990    2.8360   -1.9850 H   0  0
    1.9900    2.0900   -0.5980 H   0  0
   -4.0760    1.0140   -2.6600 H   0  0
   -3.8650   -0.6110   -1.8010 H   0  0
   -4.2310    0.8630   -0.9120 H   0  0
   -0.3360   -2.1050   -2.7910 H   0  0
    3.3200    0.1860   -2.7910 H   0  0
    1.4100    2.7390    1.5740 H   0  0
   -1.3130    3.5100   -1.6820 H   0  0
    0.9860   -4.2050   -2.7910 H   0  0
    4.6330   -1.9180   -2.7910 H   0  0
   -0.0530    4.0330    3.1000 H   0  0
   -2.7720    4.8030   -0.1490 H   0  0
    3.4690   -4.1130   -2.7910 H   0  0
   -2.1450    5.0670    2.2420 H   0  0
  1  2  2  0
  1  3  2  0
  1  4  1  0
  1  5  1  0
  4  6  1  0
  6  7  2  0
  6  8  1  0
  7  9  1  0
  7 10  1  0
  8 11  2  0
  9 12  1  0
  9 13  2  0
 12 14  1  0
 12 15  1  0
 13 16  1  0
 14 17  1  0
 15 18  1  0
 16 19  1  0
 17 20  2  0
 17 21  1  0
 18 22  2  0
 18 23  1  0
 20 24  1  0
 21 25  2  0
 22 26  1  0
 23 27  2  0
 24 28  2  0
 26 29  2  0
 11 13  1  0
 25 28  1  0
 27 29  1  0
  4 30  1  0
  5 31  1  0
  5 32  1  0
  5 33  1  0
  8 34  1  0
 10 35  1  0
 10 36  1  0
 10 37  1  0
 11 38  1  0
 14 39  1  0
 14 40  1  0
 15 41  1  0
 15 42  1  0
 19 43  1  0
 19 44  1  0
 19 45  1  0
 20 46  1  0
 21 47  1  0
 22 48  1  0
 23 49  1  0
 24 50  1  0
 25 51  1  0
 26 52  1  0
 27 53  1  0
 28 54  1  0
 29 55  1  0
M  END
> <Name>
CHEMBL67864

> <IC50 nM>
3800

> <Molecule_ChEMBL_ID>
CHEMBL67864

> <Smiles>
COc1ccc(NS(C)(=O)=O)c(C)c1N(Cc1ccccc1)Cc1ccccc1

$$$$
CHEMBL2419296
  SciTegic08162514323D

 47 51  0  0  1  0            999 V2000
   -1.8750   -3.3550   -4.5200 F   0  0
   -1.1780   -2.8160   -3.5220 C   0  0
   -1.0470   -1.4200   -3.4300 C   0  0
   -0.5720   -3.6430   -2.5590 C   0  0
   -0.3130   -0.8500   -2.3770 C   0  0
    0.1620   -3.0720   -1.5040 C   0  0
    0.2950   -1.6740   -1.4120 C   0  0
    1.0780   -1.0680   -0.2910 C   0  0
    2.2640   -1.6720    0.3050 C   0  0
    0.8090    0.1000    0.3200 C   0  0
    2.8010   -2.7170    0.0190 O   0  0
    2.6950   -0.7990    1.3100 N   0  0
   -0.3220    1.0000    0.0060 C   0  0
    1.8320    0.3850    1.4020 C   0  0  1  0  0  0
    3.8690   -1.0210    2.1850 C   0  0
   -1.6480    0.5120    0.0680 C   0  0
   -0.0700    2.3440   -0.3580 C   0  0
    2.6020    1.6780    1.1600 C   0  0
    3.6060   -1.0350    3.6780 C   0  0
    3.9020   -2.3300    2.9490 C   0  0
   -2.7360    1.3730   -0.2290 C   0  0
   -1.1500    3.2070   -0.6520 C   0  0
   -4.0120    0.9140   -0.1930 N   0  0
   -2.4810    2.7310   -0.5800 C   0  0
   -5.0860    1.7660   -0.3240 C   0  0
   -3.4960    3.5740   -0.8580 O   0  0
   -6.2130    1.3300   -0.3260 O   0  0
   -4.8360    3.2580   -0.4530 C   0  0
   -1.5100   -0.7810   -4.1680 H   0  0
   -0.6720   -4.7170   -2.6230 H   0  0
   -0.2170    0.2250   -2.3170 H   0  0
    0.6230   -3.7150   -0.7700 H   0  0
    1.3520    0.4040    2.3710 H   0  0
    4.8130   -0.6050    1.8300 H   0  0
   -1.8240   -0.5190    0.3420 H   0  0
    0.9430    2.7170   -0.4120 H   0  0
    3.4960    1.7170    1.7810 H   0  0
    2.8930    1.7640    0.1130 H   0  0
    1.9860    2.5450    1.4060 H   0  0
    4.3790   -0.6290    4.3280 H   0  0
    2.5860   -0.8810    4.0330 H   0  0
    4.8770   -2.7910    3.1110 H   0  0
    3.0800   -3.0350    2.8200 H   0  0
   -0.9550    4.2330   -0.9320 H   0  0
   -4.1900   -0.0640   -0.0780 H   0  0
   -5.5270    3.7050   -1.1660 H   0  0
   -5.0120    3.7290    0.5140 H   0  0
  1  2  1  0
  2  3  2  0
  2  4  1  0
  3  5  1  0
  4  6  2  0
  5  7  2  0
  7  8  1  0
  8  9  1  0
  8 10  2  0
  9 11  2  0
  9 12  1  0
 10 13  1  0
 10 14  1  0
 12 15  1  0
 13 16  2  0
 13 17  1  0
 14 18  1  0
 15 19  1  0
 15 20  1  0
 16 21  1  0
 17 22  2  0
 21 23  1  0
 21 24  2  0
 23 25  1  0
 24 26  1  0
 25 27  2  0
 25 28  1  0
  6  7  1  0
 12 14  1  0
 19 20  1  0
 22 24  1  0
 26 28  1  0
  3 29  1  0
  4 30  1  0
  5 31  1  0
  6 32  1  0
 14 33  1  0
 15 34  1  0
 16 35  1  0
 17 36  1  0
 18 37  1  0
 18 38  1  0
 18 39  1  0
 19 40  1  0
 19 41  1  0
 20 42  1  0
 20 43  1  0
 22 44  1  0
 23 45  1  0
 28 46  1  0
 28 47  1  0
M  END
> <Name>
CHEMBL2419296

> <IC50 nM>
2200

> <Molecule_ChEMBL_ID>
CHEMBL2419296

> <Smiles>
CC1C(c2ccc3c(c2)NC(=O)CO3)=C(c2ccc(F)cc2)C(=O)N1C1CC1

$$$$
CHEMBL1684349
  SciTegic08162514323D

 63 67  0  0  1  0            999 V2000
   -1.0510    2.8770   -6.0370 Cl  0  0
   -2.0390    2.3420   -4.7380 C   0  0
   -3.2400    3.0120   -4.4240 C   0  0
   -1.6390    1.2230   -3.9830 C   0  0
   -3.6330    4.0620   -5.1170 O   0  0
   -4.0330    2.5530   -3.3590 C   0  0
   -2.4370    0.7710   -2.9140 C   0  0
   -4.9390    4.5660   -4.8810 C   0  0
   -3.6370    1.4370   -2.6040 C   0  0
   -2.0470   -0.3170   -2.1780 N   0  0
   -2.2070   -0.3170   -0.8220 C   0  0
   -2.6930    0.6390   -0.2640 O   0  0
   -1.8010   -1.4140   -0.1900 O   0  0
   -1.9300   -1.3050    1.2250 C   0  0  1  0  0  0
   -1.9000   -2.7170    1.8530 C   0  0
   -0.7930   -0.4060    1.7520 C   0  0  2  0  0  0
   -0.5310   -3.2990    1.7710 N   0  0
   -2.8830   -3.6390    1.1190 C   0  0
   -2.3100   -2.6580    3.3300 C   0  0
    0.5240   -1.1040    1.7050 C   0  0
   -1.0760    0.1010    3.1720 C   0  0
    0.5920   -2.5330    1.7210 C   0  0
    1.7230   -0.3420    1.6480 C   0  0
    1.8590   -3.1700    1.6800 C   0  0
    1.6580    0.9900    1.6370 F   0  0
    2.9810   -0.9960    1.6070 C   0  0
    3.0510   -2.4120    1.6230 C   0  0
    4.2070   -0.2130    1.5470 C   0  0
    4.2230   -3.0470    1.5860 F   0  0
    4.4920    0.6230    0.4350 C   0  0
    5.1450   -0.2770    2.6130 C   0  0
    3.7950    0.8980   -0.7340 N   0  0
    5.6490    1.3590    0.3830 C   0  0
    6.3400    0.4880    2.5510 C   0  0
    4.5740    1.8160   -1.4810 C   0  0
    6.6020    1.3160    1.4280 C   0  0
    5.7420    2.0940   -0.7480 C   0  0
   -0.7170    0.7130   -4.2250 H   0  0
   -4.9550    3.0620   -3.1150 H   0  0
   -5.1070    5.4100   -5.5530 H   0  0
   -5.6450    3.7400   -4.9610 H   0  0
   -4.9800    4.9430   -3.8590 H   0  0
   -4.2640    1.1030   -1.7890 H   0  0
   -1.6440   -1.1100   -2.6370 H   0  0
   -2.8930   -0.8300    1.4120 H   0  0
   -0.7540    0.4690    1.1020 H   0  0
   -0.4550   -4.2970    1.7600 H   0  0
   -2.6170   -3.7620    0.0700 H   0  0
   -3.8940   -3.2370    1.1620 H   0  0
   -2.8960   -4.6290    1.5780 H   0  0
   -1.4880   -2.3280    3.9670 H   0  0
   -2.6290   -3.6410    3.6800 H   0  0
   -3.1410   -1.9670    3.4730 H   0  0
   -0.7070    1.1150    3.3220 H   0  0
   -0.6010   -0.5410    3.9120 H   0  0
   -2.1480    0.1030    3.3710 H   0  0
    1.9320   -4.2500    1.6910 H   0  0
    4.9610   -0.9020    3.4750 H   0  0
    2.9140    0.5230   -1.0040 H   0  0
    7.0530    0.4390    3.3610 H   0  0
    4.2810    2.2150   -2.4430 H   0  0
    7.5120    1.8980    1.3830 H   0  0
    6.5450    2.7580   -1.0430 H   0  0
  1  2  1  0
  2  3  2  0
  2  4  1  0
  3  5  1  0
  3  6  1  0
  4  7  2  0
  5  8  1  0
  6  9  2  0
  7 10  1  0
 10 11  1  0
 11 12  2  0
 11 13  1  0
 14 13  1  0
 14 15  1  0
 14 16  1  0
 15 17  1  0
 15 18  1  0
 15 19  1  0
 16 20  1  0
 16 21  1  0
 17 22  1  0
 20 23  2  0
 22 24  2  0
 23 25  1  0
 23 26  1  0
 24 27  1  0
 26 28  1  0
 27 29  1  0
 28 30  2  0
 28 31  1  0
 30 32  1  0
 30 33  1  0
 31 34  2  0
 32 35  1  0
 33 36  2  0
 33 37  1  0
  7  9  1  0
 20 22  1  0
 26 27  2  0
 34 36  1  0
 35 37  2  0
  4 38  1  0
  6 39  1  0
  8 40  1  0
  8 41  1  0
  8 42  1  0
  9 43  1  0
 10 44  1  0
 14 45  1  0
 16 46  1  0
 17 47  1  0
 18 48  1  0
 18 49  1  0
 18 50  1  0
 19 51  1  0
 19 52  1  0
 19 53  1  0
 21 54  1  0
 21 55  1  0
 21 56  1  0
 24 57  1  0
 31 58  1  0
 32 59  1  0
 34 60  1  0
 35 61  1  0
 36 62  1  0
 37 63  1  0
M  END
> <Name>
CHEMBL1684349

> <IC50 nM>
7.5

> <Molecule_ChEMBL_ID>
CHEMBL1684349

> <Smiles>
COc1ccc(NC(=O)O[C@@H]2[C@@H](C)c3c(cc(F)c(-c4cccc5cc[nH]c45)c3F)NC2(C)C)cc1Cl

$$$$
CHEMBL1684356
  SciTegic08162514323D

 67 71  0  0  1  0            999 V2000
   -1.7630   -1.8430   -0.9730 F   0  0
   -1.2540   -1.2370   -2.0470 C   0  0
   -0.6930   -2.0030   -3.1020 C   0  0
   -1.2780    0.1820   -2.1310 C   0  0
   -0.1560   -1.3600   -4.2440 C   0  0
   -0.6690   -3.4600   -3.0120 C   0  0
   -0.7340    0.8340   -3.2830 C   0  0
   -1.8710    0.9780   -1.0180 C   0  0  1  0  0  0
    0.3730   -2.0600   -5.2480 F   0  0
   -0.1790    0.0500   -4.3290 C   0  0
    0.5560   -4.1720   -2.9620 C   0  0
   -1.8880   -4.1880   -2.9720 C   0  0
   -0.7340    2.1890   -3.4000 N   0  0
   -1.3030    2.4110   -0.9810 C   0  0  2  0  0  0
   -3.4010    0.9710   -1.1160 C   0  0
    1.8830   -3.7610   -2.9800 N   0  0
    0.5750   -5.5420   -2.8780 C   0  0
   -1.8610   -5.6070   -2.8850 C   0  0
   -1.3270    3.0880   -2.3710 C   0  0
    0.0380    2.3550   -0.5050 O   0  0
    2.6850   -4.9260   -2.9050 C   0  0
   -0.6220   -6.2980   -2.8370 C   0  0
    1.8300   -6.0410   -2.8410 C   0  0
   -0.5310    4.3980   -2.3310 C   0  0
   -2.7660    3.4130   -2.7880 C   0  0
    0.1010    2.1670    0.8110 C   0  0
   -0.8690    2.1180    1.5310 O   0  0
    1.3560    2.0270    1.3320 N   0  0
    1.5160    1.7430    2.6630 C   0  0
    2.5590    2.3460    3.3930 C   0  0
    0.6400    0.8480    3.3050 C   0  0
    2.7240    2.0550    4.7580 C   0  0
    0.8050    0.5570    4.6700 C   0  0
    1.8470    1.1590    5.4000 C   0  0
    2.0080    0.8750    6.7300 N   0  0
    1.1680   -0.1300    7.3970 C   0  0
    3.0330    1.5800    7.5140 C   0  0
   -1.6090    0.5080   -0.0680 H   0  0
    0.2360    0.5240   -5.2080 H   0  0
   -2.8410   -3.6790   -3.0070 H   0  0
   -0.3280    2.6200   -4.2080 H   0  0
   -1.8620    3.0110   -0.2620 H   0  0
   -3.8190    0.1310   -0.5630 H   0  0
   -3.8160    1.8990   -0.7220 H   0  0
   -3.7200    0.8780   -2.1550 H   0  0
    2.2140   -2.8250   -3.0360 H   0  0
   -2.7870   -6.1620   -2.8550 H   0  0
    3.7670   -4.9160   -2.9010 H   0  0
   -0.6050   -7.3760   -2.7710 H   0  0
    2.1280   -7.0800   -2.7760 H   0  0
    0.5180    4.2290   -2.0880 H   0  0
   -0.9410    5.0750   -1.5810 H   0  0
   -0.5730    4.9040   -3.2950 H   0  0
   -3.2840    2.5360   -3.1750 H   0  0
   -2.7780    4.1780   -3.5650 H   0  0
   -3.3370    3.7910   -1.9400 H   0  0
    2.1570    2.1320    0.7430 H   0  0
    3.2420    3.0360    2.9170 H   0  0
   -0.1660    0.3750    2.7610 H   0  0
    3.5300    2.5270    5.3020 H   0  0
    0.1220   -0.1340    5.1460 H   0  0
    0.1090    0.1220    7.4500 H   0  0
    1.5270   -0.2780    8.4160 H   0  0
    1.2580   -1.0790    6.8700 H   0  0
    4.0600    1.3870    7.2020 H   0  0
    2.9430    1.2940    8.5620 H   0  0
    2.8610    2.6540    7.4460 H   0  0
  1  2  1  0
  2  3  2  0
  2  4  1  0
  3  5  1  0
  3  6  1  0
  4  7  2  0
  4  8  1  0
  5  9  1  0
  5 10  2  0
  6 11  2  0
  6 12  1  0
  7 13  1  0
  8 14  1  0
  8 15  1  0
 11 16  1  0
 11 17  1  0
 12 18  2  0
 13 19  1  0
 14 20  1  0
 16 21  1  0
 17 22  2  0
 17 23  1  0
 19 24  1  0
 19 25  1  0
 20 26  1  0
 26 27  2  0
 26 28  1  0
 28 29  1  0
 29 30  2  0
 29 31  1  0
 30 32  1  0
 31 33  2  0
 32 34  2  0
 34 35  1  0
 35 36  1  0
 35 37  1  0
  7 10  1  0
 14 19  1  0
 18 22  1  0
 21 23  2  0
 33 34  1  0
  8 38  1  0
 10 39  1  0
 12 40  1  0
 13 41  1  0
 14 42  1  0
 15 43  1  0
 15 44  1  0
 15 45  1  0
 16 46  1  0
 18 47  1  0
 21 48  1  0
 22 49  1  0
 23 50  1  0
 24 51  1  0
 24 52  1  0
 24 53  1  0
 25 54  1  0
 25 55  1  0
 25 56  1  0
 28 57  1  0
 30 58  1  0
 31 59  1  0
 32 60  1  0
 33 61  1  0
 36 62  1  0
 36 63  1  0
 36 64  1  0
 37 65  1  0
 37 66  1  0
 37 67  1  0
M  END
> <Name>
CHEMBL1684356

> <IC50 nM>
8.4

> <Molecule_ChEMBL_ID>
CHEMBL1684356

> <Smiles>
C[C@H]1c2c(cc(F)c(-c3cccc4cc[nH]c34)c2F)NC(C)(C)[C@@H]1OC(=O)Nc1ccc(N(C)C)cc1

$$$$
CHEMBL1668076
  SciTegic08162514323D

 75 78  0  0  1  0            999 V2000
   -0.8650   -5.7270    0.4430 S   0  0
   -1.8950   -6.7480    0.4900 O   0  0
   -0.0220   -5.8160   -0.7360 O   0  0
   -1.7010   -4.2070    0.3180 N   0  0
    0.1370   -5.8990    1.8400 C   0  0
   -2.4550   -3.9400   -0.8950 C   0  0  2  0  0  0
    0.3030   -7.1640    2.4360 C   0  0
    0.7870   -4.7750    2.3830 C   0  0
   -2.8200   -2.4590   -0.9840 C   0  0
   -3.6760   -4.8560   -0.9790 C   0  0
    1.1170   -7.3030    3.5720 C   0  0
   -0.3810   -8.3580    1.8670 C   0  0
    1.6020   -4.9160    3.5220 C   0  0
    0.6170   -3.4360    1.7600 C   0  0
   -1.6170   -1.6250   -1.1050 N   0  0
    1.7680   -6.1800    4.1150 C   0  0
   -1.7310   -0.2830   -1.1760 C   0  0
    2.6290   -6.3280    5.3180 C   0  0
   -0.4980    0.4450   -1.2830 C   0  0
   -2.9730    0.4000   -1.1470 C   0  0
   -0.5760    1.8280   -1.3570 C   0  0
    0.7790   -0.1150   -1.3220 C   0  0
   -3.0020    1.8160   -1.2250 C   0  0
    0.7280    2.1990   -1.4490 N   0  0
   -1.7950    2.5490   -1.3320 C   0  0
    1.4920    1.0590   -1.4260 N   0  0
   -4.2910    2.5270   -1.1950 C   0  0
    1.2130    3.4650   -1.5450 C   0  0
    2.2420    3.7600   -2.4610 C   0  0
    0.6870    4.4860   -0.7300 C   0  0
    2.7420    5.0680   -2.5610 C   0  0
    1.1890    5.7970   -0.8320 C   0  0
    2.2170    6.0900   -1.7460 C   0  0
    2.7050    7.3650   -1.8440 N   0  0
    2.1820    8.4220   -0.9670 C   0  0  2  0  0  0
    2.4160    9.7910   -1.5470 C   0  0
    2.7400    8.2870    0.4490 C   0  0
    3.1350   10.5880   -0.9900 O   0  0
    1.8010   10.1210   -2.7210 N   0  0
   -2.3360   -4.0980    1.1210 H   0  0
   -1.7230   -4.2030   -1.6600 H   0  0
   -3.3850   -2.1470   -0.1040 H   0  0
   -3.4730   -2.2730   -1.8380 H   0  0
   -3.3710   -5.8950   -1.1040 H   0  0
   -4.2850   -4.7700   -0.0800 H   0  0
   -4.3010   -4.5880   -1.8320 H   0  0
    1.2460   -8.2740    4.0290 H   0  0
   -0.3260   -8.4300    0.7810 H   0  0
   -1.4340   -8.3400    2.1470 H   0  0
    0.0600   -9.2620    2.2850 H   0  0
    2.1020   -4.0550    3.9380 H   0  0
    0.6580   -3.4400    0.6720 H   0  0
    1.3960   -2.7660    2.1230 H   0  0
   -0.3460   -3.0180    2.0550 H   0  0
   -0.7130   -2.0530   -1.1370 H   0  0
    3.0860   -5.4000    5.6600 H   0  0
    3.4300   -7.0370    5.1060 H   0  0
    2.0390   -6.7330    6.1410 H   0  0
   -3.8990   -0.1540   -1.0640 H   0  0
    1.1560   -1.1290   -1.2850 H   0  0
   -1.8030    3.6270   -1.3930 H   0  0
   -5.1600    1.8750   -1.1110 H   0  0
   -4.4020    3.1150   -2.1070 H   0  0
   -4.3070    3.2150   -0.3500 H   0  0
    2.6580    2.9880   -3.0940 H   0  0
   -0.1040    4.2810   -0.0230 H   0  0
    3.5330    5.2750   -3.2700 H   0  0
    0.7730    6.5670   -0.1990 H   0  0
    3.4200    7.5650   -2.5160 H   0  0
    1.0940    8.3750   -0.9590 H   0  0
    2.5180    7.3110    0.8810 H   0  0
    2.3140    9.0450    1.1050 H   0  0
    3.8220    8.4120    0.4510 H   0  0
    1.9240   11.0180   -3.1470 H   0  0
    1.2070    9.4610   -3.1820 H   0  0
  1  2  2  0
  1  3  2  0
  1  4  1  0
  1  5  1  0
  4  6  1  0
  5  7  2  0
  5  8  1  0
  6  9  1  0
  6 10  1  0
  7 11  1  0
  7 12  1  0
  8 13  2  0
  8 14  1  0
  9 15  1  0
 11 16  2  0
 15 17  1  0
 16 18  1  0
 17 19  2  0
 17 20  1  0
 19 21  1  0
 19 22  1  0
 20 23  2  0
 21 24  1  0
 21 25  2  0
 22 26  2  0
 23 27  1  0
 24 28  1  0
 28 29  2  0
 28 30  1  0
 29 31  1  0
 30 32  2  0
 31 33  2  0
 33 34  1  0
 34 35  1  0
 35 36  1  0
 35 37  1  0
 36 38  2  0
 36 39  1  0
 13 16  1  0
 23 25  1  0
 24 26  1  0
 32 33  1  0
  4 40  1  0
  6 41  1  0
  9 42  1  0
  9 43  1  0
 10 44  1  0
 10 45  1  0
 10 46  1  0
 11 47  1  0
 12 48  1  0
 12 49  1  0
 12 50  1  0
 13 51  1  0
 14 52  1  0
 14 53  1  0
 14 54  1  0
 15 55  1  0
 18 56  1  0
 18 57  1  0
 18 58  1  0
 20 59  1  0
 22 60  1  0
 25 61  1  0
 27 62  1  0
 27 63  1  0
 27 64  1  0
 29 65  1  0
 30 66  1  0
 31 67  1  0
 32 68  1  0
 34 69  1  0
 35 70  1  0
 37 71  1  0
 37 72  1  0
 37 73  1  0
 39 74  1  0
 39 75  1  0
M  END
> <Name>
CHEMBL1668076

> <IC50 nM>
31.62

> <Molecule_ChEMBL_ID>
CHEMBL1668076

> <Smiles>
Cc1cc(C)c(S(=O)(=O)N[C@@H](C)CNc2cc(C)cc3c2cnn3-c2ccc(N[C@@H](C)C(N)=O)cc2)c(C)c1

$$$$
CHEMBL1668082
  SciTegic08162514323D

 82 86  0  0  1  0            999 V2000
   -1.9630   -3.7500   -4.1000 S   0  0
   -2.2270   -5.1040   -4.5570 O   0  0
   -3.1230   -3.1090   -3.5080 O   0  0
   -0.7910   -3.8970   -2.8220 N   0  0
   -1.4550   -2.8090   -5.4590 C   0  0
   -1.1950   -4.5650   -1.5980 C   0  0  2  0  0  0
   -0.7950   -3.4280   -6.5350 C   0  0
   -1.7010   -1.4240   -5.4850 C   0  0
   -0.1840   -4.2970   -0.4830 C   0  0
   -1.4180   -6.0550   -1.8500 C   0  0
   -0.3830   -2.6600   -7.6390 C   0  0
   -0.5310   -4.8930   -6.5160 C   0  0
   -1.2870   -0.6580   -6.5900 C   0  0
   -2.3990   -0.7620   -4.3500 C   0  0
   -0.1740   -2.8750   -0.1090 N   0  0
   -0.6290   -1.2770   -7.6660 C   0  0
    0.6740   -2.4340    0.8400 C   0  0
   -0.1920   -0.4670   -8.8340 C   0  0
    0.6150   -1.0290    1.1310 C   0  0
    1.5840   -3.2770    1.5290 C   0  0
    1.4760   -0.5390    2.1030 C   0  0
   -0.2340   -0.1070    0.5190 C   0  0
    2.4430   -2.7310    2.5180 C   0  0
    1.1740    0.7850    2.1310 N   0  0
    2.3960   -1.3460    2.8140 C   0  0
    0.1820    1.0120    1.2070 N   0  0
    3.3870   -3.6020    3.2340 C   0  0
    1.7360    1.7340    2.9240 C   0  0
    0.9300    2.7090    3.5430 C   0  0
    3.1310    1.7440    3.1270 C   0  0
    1.5180    3.6910    4.3650 C   0  0
    3.7150    2.7250    3.9450 C   0  0
    0.7320    4.6430    4.9690 N   0  0
    2.9100    3.6970    4.5640 C   0  0
   -0.6390    4.3200    5.4390 C   0  0
    1.2250    6.0270    5.1740 C   0  0
   -1.6680    5.3520    4.9320 C   0  0  3  0  0  0
    0.1950    7.0610    4.6760 C   0  0
   -1.2110    6.7890    5.2360 C   0  0
   -1.9590    5.1640    3.4370 C   0  0
   -3.0270    6.0140    3.0860 O   0  0
    0.0530   -4.3650   -3.1820 H   0  0
   -2.1430   -4.0650   -1.3870 H   0  0
    0.8180   -4.5940   -0.7930 H   0  0
   -0.4140   -4.8970    0.3980 H   0  0
   -2.2680   -6.2130   -2.5120 H   0  0
   -0.5310   -6.5060   -2.2950 H   0  0
   -1.6230   -6.5780   -0.9140 H   0  0
    0.1230   -3.1350   -8.4690 H   0  0
   -0.1500   -5.2660   -5.5650 H   0  0
    0.1970   -5.1410   -7.2870 H   0  0
   -1.4530   -5.4300   -6.7400 H   0  0
   -1.4770    0.4040   -6.6100 H   0  0
   -2.0100   -1.0310   -3.3670 H   0  0
   -3.4570   -1.0240   -4.3710 H   0  0
   -2.3180    0.3200   -4.4530 H   0  0
   -0.7970   -2.2360   -0.5590 H   0  0
   -0.4220    0.5960   -8.7540 H   0  0
   -0.6700   -0.8440   -9.7390 H   0  0
    0.8870   -0.5650   -8.9610 H   0  0
    1.6250   -4.3360    1.3090 H   0  0
   -0.9940   -0.1780   -0.2480 H   0  0
    3.0470   -0.9160    3.5620 H   0  0
    3.3520   -4.6490    2.9300 H   0  0
    3.1800   -3.5610    4.3030 H   0  0
    4.4040   -3.2440    3.0780 H   0  0
   -0.1410    2.7030    3.3890 H   0  0
    3.7660    1.0040    2.6600 H   0  0
    4.7830    2.7320    4.1000 H   0  0
    3.3790    4.4450    5.1910 H   0  0
   -0.6270    4.3240    6.5290 H   0  0
   -0.9340    3.3130    5.1370 H   0  0
    1.3980    6.1700    6.2420 H   0  0
    2.1820    6.1840    4.6740 H   0  0
   -2.6060    5.1800    5.4610 H   0  0
    0.5190    8.0650    4.9530 H   0  0
    0.1620    7.0430    3.5860 H   0  0
   -1.9220    7.5120    4.8340 H   0  0
   -1.1990    6.9430    6.3160 H   0  0
   -2.2600    4.1370    3.2300 H   0  0
   -1.0940    5.4430    2.8380 H   0  0
   -3.1990    5.8810    2.1410 H   0  0
  1  2  2  0
  1  3  2  0
  1  4  1  0
  1  5  1  0
  4  6  1  0
  5  7  2  0
  5  8  1  0
  6  9  1  0
  6 10  1  0
  7 11  1  0
  7 12  1  0
  8 13  2  0
  8 14  1  0
  9 15  1  0
 11 16  2  0
 15 17  1  0
 16 18  1  0
 17 19  2  0
 17 20  1  0
 19 21  1  0
 19 22  1  0
 20 23  2  0
 21 24  1  0
 21 25  2  0
 22 26  2  0
 23 27  1  0
 24 28  1  0
 28 29  2  0
 28 30  1  0
 29 31  1  0
 30 32  2  0
 31 33  1  0
 31 34  2  0
 33 35  1  0
 33 36  1  0
 35 37  1  0
 36 38  1  0
 37 39  1  0
 37 40  1  0
 40 41  1  0
 13 16  1  0
 23 25  1  0
 24 26  1  0
 32 34  1  0
 38 39  1  0
  4 42  1  0
  6 43  1  0
  9 44  1  0
  9 45  1  0
 10 46  1  0
 10 47  1  0
 10 48  1  0
 11 49  1  0
 12 50  1  0
 12 51  1  0
 12 52  1  0
 13 53  1  0
 14 54  1  0
 14 55  1  0
 14 56  1  0
 15 57  1  0
 18 58  1  0
 18 59  1  0
 18 60  1  0
 20 61  1  0
 22 62  1  0
 25 63  1  0
 27 64  1  0
 27 65  1  0
 27 66  1  0
 29 67  1  0
 30 68  1  0
 32 69  1  0
 34 70  1  0
 35 71  1  0
 35 72  1  0
 36 73  1  0
 36 74  1  0
 37 75  1  0
 38 76  1  0
 38 77  1  0
 39 78  1  0
 39 79  1  0
 40 80  1  0
 40 81  1  0
 41 82  1  0
M  END
> <Name>
CHEMBL1668082

> <IC50 nM>
25.12

> <Molecule_ChEMBL_ID>
CHEMBL1668082

> <Smiles>
Cc1cc(C)c(S(=O)(=O)N[C@@H](C)CNc2cc(C)cc3c2cnn3-c2cccc(N3CCCC(CO)C3)c2)c(C)c1

$$$$
CHEMBL3233278
  SciTegic08162514323D

 55 58  0  0  1  0            999 V2000
   -3.3910    1.8010    4.6640 F   0  0
   -2.3030    1.4340    3.9920 C   0  0
   -2.4180    0.6170    2.8540 C   0  0
   -1.0350    1.8590    4.4240 C   0  0
   -1.2680    0.2290    2.1450 C   0  0
    0.1150    1.4710    3.7150 C   0  0
    0.0040    0.6560    2.5740 C   0  0
   -1.4020   -0.6350    0.9420 C   0  0
    1.0900    0.2970    1.9180 O   0  0
   -1.1480    0.5060   -0.0450 C   0  0
   -2.8130   -1.2150    0.8200 C   0  0
   -0.3160   -1.7090    0.8950 C   0  0
    2.3260    0.8730    2.3110 C   0  0
   -1.5960    0.1680   -1.4670 C   0  0  1  0  0  0
   -3.0040    0.0980   -1.4820 O   0  0
   -1.1640    1.2720   -2.4220 C   0  0
   -1.0450   -1.1720   -1.9550 C   0  0
   -0.7320    2.6150   -1.8690 C   0  0
   -2.0450    2.4880   -2.6090 C   0  0
    0.4690   -1.1990   -1.8940 C   0  0
    1.2250   -2.4000   -1.8940 N   0  0
    1.3570   -0.1070   -1.8300 C   0  0
    2.5610   -2.0370   -1.8300 C   0  0
    2.5860   -0.6660   -1.7950 C   0  0
    3.7620   -2.7970   -1.8030 C   0  0
    3.8400   -0.0210   -1.7260 C   0  0
    4.9980   -2.0860   -1.7320 C   0  0
    5.0430   -0.6950   -1.6930 N   0  0
   -3.3950    0.2890    2.5240 H   0  0
   -0.9390    2.4860    5.2970 H   0  0
    1.0880    1.8010    4.0490 H   0  0
   -0.1000    0.8010   -0.0310 H   0  0
   -1.6210    1.4260    0.2990 H   0  0
   -2.9060   -1.8790   -0.0390 H   0  0
   -3.5490   -0.4200    0.7090 H   0  0
   -3.0720   -1.7870    1.7110 H   0  0
   -0.0760   -2.0880    1.8870 H   0  0
    0.6000   -1.3110    0.4570 H   0  0
   -0.6370   -2.5550    0.2830 H   0  0
    3.1090    0.4690    1.6700 H   0  0
    2.2130    1.9570    2.3090 H   0  0
    2.5390    0.5630    3.3340 H   0  0
   -3.2540   -0.4390   -2.2500 H   0  0
   -0.6330    0.9020   -3.3010 H   0  0
   -1.3690   -1.3750   -2.9760 H   0  0
   -1.4450   -1.9940   -1.3630 H   0  0
    0.0880    3.1270   -2.3710 H   0  0
   -0.7680    2.7580   -0.7890 H   0  0
   -2.1070    2.9180   -3.6090 H   0  0
   -2.9650    2.5490   -2.0250 H   0  0
    0.8650   -3.3260   -1.9320 H   0  0
    1.1050    0.9430   -1.8140 H   0  0
    3.7400   -3.8750   -1.8320 H   0  0
    3.8690    1.0590   -1.6950 H   0  0
    5.9240   -2.6430   -1.7090 H   0  0
  1  2  1  0
  2  3  2  0
  2  4  1  0
  3  5  1  0
  4  6  2  0
  5  7  2  0
  5  8  1  0
  7  9  1  0
  8 10  1  0
  8 11  1  0
  8 12  1  0
  9 13  1  0
 10 14  1  0
 14 15  1  0
 14 16  1  0
 14 17  1  0
 16 18  1  0
 16 19  1  0
 17 20  1  0
 20 21  1  0
 20 22  2  0
 21 23  1  0
 22 24  1  0
 23 25  1  0
 24 26  1  0
 25 27  2  0
 26 28  2  0
  6  7  1  0
 18 19  1  0
 23 24  2  0
 27 28  1  0
  3 29  1  0
  4 30  1  0
  6 31  1  0
 10 32  1  0
 10 33  1  0
 11 34  1  0
 11 35  1  0
 11 36  1  0
 12 37  1  0
 12 38  1  0
 12 39  1  0
 13 40  1  0
 13 41  1  0
 13 42  1  0
 15 43  1  0
 16 44  1  0
 17 45  1  0
 17 46  1  0
 18 47  1  0
 18 48  1  0
 19 49  1  0
 19 50  1  0
 21 51  1  0
 22 52  1  0
 25 53  1  0
 26 54  1  0
 27 55  1  0
M  END
> <Name>
CHEMBL3233278

> <IC50 nM>
8

> <Molecule_ChEMBL_ID>
CHEMBL3233278

> <Smiles>
COc1ccc(F)cc1C(C)(C)CC(O)(Cc1cc2cnccc2[nH]1)C1CC1

$$$$
CHEMBL231807
  SciTegic08162514323D

 50 53  0  0  1  0            999 V2000
    1.7710    0.9040   -1.5190 S   0  0
    1.9330    1.3350   -2.8960 O   0  0
    3.0320    0.7520   -0.8140 O   0  0
    0.9220    2.1890   -0.7100 N   0  0
    0.9630   -0.6210   -1.5190 C   0  0
    1.5880    3.4750   -0.5860 C   0  0  2  0  0  0
    1.4400   -1.6660   -2.3280 C   0  0
   -0.1690   -0.8130   -0.7090 C   0  0
    0.8750    4.3490    0.4470 C   0  0
    1.7050    4.1510   -1.9520 C   0  0
    0.7820   -2.9080   -2.3280 C   0  0
   -0.8270   -2.0550   -0.7090 C   0  0
    0.8940    3.7040    1.8180 C   0  0
   -0.3540   -3.1050   -1.5190 C   0  0
   -0.0720    2.9530    2.3950 C   0  0
    1.9370    3.7670    2.7620 C   0  0
   -1.0350   -4.3920   -1.5190 C   0  0
    0.2770    2.5260    3.6510 C   0  0
   -1.3230    2.6100    1.8250 C   0  0
    1.5440    3.0280    3.9060 N   0  0
   -2.4430   -4.4460   -1.5190 C   0  0
   -0.2900   -5.5860   -1.5190 C   0  0
   -0.5910    1.7270    4.4310 C   0  0
   -2.2150    1.8080    2.5840 C   0  0
   -3.0990   -5.6880   -1.5190 C   0  0
   -0.9490   -6.8280   -1.5190 C   0  0
   -1.8500    1.3670    3.8850 C   0  0
   -2.3530   -6.8790   -1.5190 C   0  0
    0.0120    2.3410   -1.1690 H   0  0
    2.5690    3.1700   -0.2220 H   0  0
    2.3100   -1.5160   -2.9490 H   0  0
   -0.5340   -0.0090   -0.0880 H   0  0
   -0.1560    4.5360    0.1470 H   0  0
    1.3380    5.3340    0.5020 H   0  0
    2.3650    3.5840   -2.6070 H   0  0
    0.7260    4.2390   -2.4230 H   0  0
    2.1170    5.1550   -1.8500 H   0  0
    1.1590   -3.7030   -2.9560 H   0  0
   -1.6970   -2.1890   -0.0820 H   0  0
    2.8860    4.2790    2.6700 H   0  0
   -1.6020    2.9450    0.8360 H   0  0
    2.0800    2.8970    4.7330 H   0  0
   -3.0320   -3.5390   -1.5190 H   0  0
    0.7910   -5.5650   -1.5190 H   0  0
   -0.3060    1.3960    5.4200 H   0  0
   -3.1740    1.5320    2.1710 H   0  0
   -4.1790   -5.7280   -1.5190 H   0  0
   -0.3760   -7.7430   -1.5190 H   0  0
   -2.5320    0.7570    4.4570 H   0  0
   -2.8590   -7.8340   -1.5190 H   0  0
  1  2  2  0
  1  3  2  0
  1  4  1  0
  1  5  1  0
  4  6  1  0
  5  7  2  0
  5  8  1  0
  6  9  1  0
  6 10  1  0
  7 11  1  0
  8 12  2  0
  9 13  1  0
 11 14  2  0
 13 15  1  0
 13 16  2  0
 14 17  1  0
 15 18  1  0
 15 19  2  0
 16 20  1  0
 17 21  2  0
 17 22  1  0
 18 23  2  0
 19 24  1  0
 21 25  1  0
 22 26  2  0
 23 27  1  0
 25 28  2  0
 12 14  1  0
 18 20  1  0
 24 27  2  0
 26 28  1  0
  4 29  1  0
  6 30  1  0
  7 31  1  0
  8 32  1  0
  9 33  1  0
  9 34  1  0
 10 35  1  0
 10 36  1  0
 10 37  1  0
 11 38  1  0
 12 39  1  0
 16 40  1  0
 19 41  1  0
 20 42  1  0
 21 43  1  0
 22 44  1  0
 23 45  1  0
 24 46  1  0
 25 47  1  0
 26 48  1  0
 27 49  1  0
 28 50  1  0
M  END
> <Name>
CHEMBL231807

> <IC50 nM>
2600

> <Molecule_ChEMBL_ID>
CHEMBL231807

> <Smiles>
CC(Cc1c[nH]c2ccccc12)NS(=O)(=O)c1ccc(-c2ccccc2)cc1

$$$$
CHEMBL1254420
  SciTegic08162514323D

 52 55  0  0  1  0            999 V2000
    2.0600    5.4670   -1.1780 F   0  0
    0.9780    4.7030   -1.3160 C   0  0
    1.0550    3.3170   -1.0880 C   0  0
   -0.2540    5.2760   -1.6950 C   0  0
   -0.1040    2.5220   -1.2420 C   0  0
   -1.4120    4.4730   -1.8480 C   0  0
   -1.3520    3.0880   -1.6210 C   0  0
   -0.0200    1.0720   -1.0020 C   0  0
   -2.8220    4.8380   -2.2340 C   0  0
   -2.5280    2.4920   -1.8100 O   0  0
    1.3940    0.6500   -0.5980 C   0  0
   -0.5570    0.2740   -2.1870 C   0  0
   -0.9880    1.0980    0.1820 C   0  0
   -3.5300    3.4510   -2.1930 C   0  0
    1.4530   -0.7810   -0.0640 C   0  0  1  0  0  0
    0.3400   -1.4840   -0.5660 O   0  0
    2.7190   -1.4100   -0.6440 C   0  0
    1.4100   -0.8440    1.4630 C   0  0
    3.8100   -0.6640   -0.2790 F   0  0
    2.6270   -1.4450   -2.0120 F   0  0
    2.8570   -2.6870   -0.1640 F   0  0
    0.9820   -2.2150    1.9430 C   0  0
    1.8920   -3.1870    2.4300 N   0  0
   -0.3190   -2.7540    1.9980 C   0  0
    1.1400   -4.2970    2.7720 C   0  0
   -0.1720   -3.9980    2.4980 C   0  0
    1.4470   -5.5640    3.3030 C   0  0
   -1.2030   -4.9490    2.7440 C   0  0
    0.5000   -6.5310    3.5670 N   0  0
   -0.8260   -6.2170    3.2850 C   0  0
    1.9920    2.8650   -0.7990 H   0  0
   -0.3200    6.3400   -1.8730 H   0  0
   -2.8480    5.2770   -3.2230 H   0  0
   -3.2480    5.5330   -1.5250 H   0  0
    1.8120    1.3500    0.1270 H   0  0
    2.0880    0.7810   -1.4280 H   0  0
   -1.0040    0.9180   -2.9430 H   0  0
   -1.3190   -0.4350   -1.8610 H   0  0
    0.2440   -0.2950   -2.6640 H   0  0
   -2.0080    1.2750   -0.1600 H   0  0
   -0.9550    0.1520    0.7250 H   0  0
   -0.7250    1.8930    0.8790 H   0  0
   -4.3300    3.4280   -1.4670 H   0  0
   -3.9300    3.1720   -3.1560 H   0  0
    0.5700   -2.4280   -0.5590 H   0  0
    0.7300   -0.0900    1.8610 H   0  0
    2.3830   -0.5980    1.8870 H   0  0
    2.8790   -3.0900    2.5080 H   0  0
   -1.2380   -2.2680    1.6990 H   0  0
    2.4800   -5.7950    3.5180 H   0  0
   -2.2380   -4.7270    2.5310 H   0  0
   -1.5940   -6.9530    3.4810 H   0  0
  1  2  1  0
  2  3  2  0
  2  4  1  0
  3  5  1  0
  4  6  2  0
  5  7  2  0
  5  8  1  0
  6  9  1  0
  7 10  1  0
  8 11  1  0
  8 12  1  0
  8 13  1  0
  9 14  1  0
 11 15  1  0
 15 16  1  0
 15 17  1  0
 15 18  1  0
 17 19  1  0
 17 20  1  0
 17 21  1  0
 18 22  1  0
 22 23  1  0
 22 24  2  0
 23 25  1  0
 24 26  1  0
 25 27  1  0
 26 28  1  0
 27 29  2  0
 28 30  2  0
  6  7  1  0
 10 14  1  0
 25 26  2  0
 29 30  1  0
  3 31  1  0
  4 32  1  0
  9 33  1  0
  9 34  1  0
 11 35  1  0
 11 36  1  0
 12 37  1  0
 12 38  1  0
 12 39  1  0
 13 40  1  0
 13 41  1  0
 13 42  1  0
 14 43  1  0
 14 44  1  0
 16 45  1  0
 18 46  1  0
 18 47  1  0
 23 48  1  0
 24 49  1  0
 27 50  1  0
 28 51  1  0
 30 52  1  0
M  END
> <Name>
CHEMBL1254420

> <IC50 nM>
9.3

> <Molecule_ChEMBL_ID>
CHEMBL1254420

> <Smiles>
CC(C)(CC(O)(Cc1cc2ccncc2[nH]1)C(F)(F)F)c1cc(F)cc2c1OCC2

$$$$
CHEMBL1254080
  SciTegic08162514323D

 61 64  0  0  1  0            999 V2000
    0.7950   -2.7050   -1.6500 F   0  0
    1.0430   -1.5160   -2.2870 C   0  0
    2.1720   -1.6370   -3.0570 F   0  0
   -0.0230   -1.1970   -3.0880 F   0  0
    1.2480   -0.4140   -1.2500 C   0  0  1  0  0  0
    2.0720   -0.9220   -0.2250 O   0  0
    1.9220    0.8280   -1.8320 C   0  0
   -0.1270   -0.1130   -0.6520 C   0  0
    3.4300    0.7170   -1.7680 C   0  0
   -0.0920    0.0330    0.8690 C   0  0
    4.2910    1.8420   -1.6910 N   0  0
    4.2190   -0.4510   -1.7700 C   0  0
   -1.5310    0.3930    0.9770 C   0  0
    0.2130   -1.2850    1.5800 C   0  0
    0.8110    1.1760    1.3300 C   0  0
    5.5820    1.3480   -1.6470 C   0  0
    5.4980   -0.0210   -1.6970 C   0  0
   -1.9390    1.7340    0.8500 C   0  0
   -2.4840   -0.6150    1.2090 C   0  0
    6.8580    1.9410   -1.5660 C   0  0
    6.6700   -0.8280   -1.6700 C   0  0
   -1.0550    2.6860    0.6310 O   0  0
   -3.3030    2.0590    0.9550 C   0  0
   -3.8500   -0.2870    1.3140 C   0  0
    8.0330    1.2210   -1.5350 N   0  0
    7.9340   -0.1660   -1.5880 C   0  0
   -1.4800    3.8460   -0.0680 C   0  0
   -4.2580    1.0530    1.1860 C   0  0
   -4.8360   -1.3300    1.5550 C   0  0
   -6.1370   -1.2050    1.0330 C   0  0
   -4.4900   -2.4690    2.3090 C   0  0
   -7.0880   -2.2150    1.2660 C   0  0
   -5.4430   -3.4770    2.5410 C   0  0
   -6.7420   -3.3480    2.0200 C   0  0
    2.5290   -0.1660    0.1760 H   0  0
    1.6020    1.7270   -1.3030 H   0  0
    1.6130    0.9840   -2.8670 H   0  0
   -0.5630    0.7740   -1.1150 H   0  0
   -0.8500   -0.8730   -0.9510 H   0  0
    4.0200    2.7970   -1.6740 H   0  0
    3.8690   -1.4750   -1.8200 H   0  0
   -0.3650   -1.3960    2.4960 H   0  0
    1.2700   -1.3440    1.8460 H   0  0
   -0.0160   -2.1350    0.9360 H   0  0
    0.3810    1.7190    2.1740 H   0  0
    0.9730    1.8910    0.5230 H   0  0
    1.7850    0.7970    1.6410 H   0  0
   -2.1580   -1.6430    1.3070 H   0  0
    6.9220    3.0200   -1.5270 H   0  0
    6.6150   -1.9060   -1.7110 H   0  0
   -3.6210    3.0860    0.8570 H   0  0
    8.8360   -0.7580   -1.5640 H   0  0
   -0.5980    4.4120   -0.3590 H   0  0
   -2.1430    3.5330   -0.8750 H   0  0
   -2.0610    4.4650    0.6170 H   0  0
   -5.3010    1.3240    1.2640 H   0  0
   -6.4200   -0.3400    0.4510 H   0  0
   -3.4960   -2.5820    2.7170 H   0  0
   -8.0860   -2.1170    0.8650 H   0  0
   -5.1760   -4.3480    3.1190 H   0  0
   -7.4730   -4.1230    2.1970 H   0  0
  1  2  1  0
  2  3  1  0
  2  4  1  0
  2  5  1  0
  5  6  1  0
  5  7  1  0
  5  8  1  0
  7  9  1  0
  8 10  1  0
  9 11  1  0
  9 12  2  0
 10 13  1  0
 10 14  1  0
 10 15  1  0
 11 16  1  0
 12 17  1  0
 13 18  2  0
 13 19  1  0
 16 20  1  0
 17 21  1  0
 18 22  1  0
 18 23  1  0
 19 24  2  0
 20 25  2  0
 21 26  2  0
 22 27  1  0
 23 28  2  0
 24 29  1  0
 29 30  2  0
 29 31  1  0
 30 32  1  0
 31 33  2  0
 32 34  2  0
 16 17  2  0
 24 28  1  0
 25 26  1  0
 33 34  1  0
  6 35  1  0
  7 36  1  0
  7 37  1  0
  8 38  1  0
  8 39  1  0
 11 40  1  0
 12 41  1  0
 14 42  1  0
 14 43  1  0
 14 44  1  0
 15 45  1  0
 15 46  1  0
 15 47  1  0
 19 48  1  0
 20 49  1  0
 21 50  1  0
 23 51  1  0
 26 52  1  0
 27 53  1  0
 27 54  1  0
 27 55  1  0
 28 56  1  0
 30 57  1  0
 31 58  1  0
 32 59  1  0
 33 60  1  0
 34 61  1  0
M  END
> <Name>
CHEMBL1254080

> <IC50 nM>
40

> <Molecule_ChEMBL_ID>
CHEMBL1254080

> <Smiles>
COc1ccc(-c2ccccc2)cc1C(C)(C)CC(O)(Cc1cc2ccncc2[nH]1)C(F)(F)F

$$$$
CHEMBL238360
  SciTegic08162514323D

 58 61  0  0  1  0            999 V2000
   -3.6270    1.8380    0.4940 F   0  0
   -2.5840    1.0470    0.9020 C   0  0
   -1.5980    1.8320    1.4410 F   0  0
   -3.0270    0.1580    1.8460 F   0  0
   -2.0250    0.2810   -0.2970 C   0  0  3  0  0  0
   -3.0940   -0.3890   -0.9300 O   0  0
   -1.4790    1.3280   -1.2680 C   0  0
   -0.9780   -0.7580    0.1020 C   0  0
   -0.0290    1.5040   -1.0900 N   0  0
   -0.9880   -1.9920   -0.8140 C   0  0  3  0  0  0
    0.4650    2.7050   -0.7340 C   0  0
    0.3200   -2.7210   -0.7420 C   0  0
   -2.1820   -2.8770   -0.3910 C   0  0
   -1.1970   -1.5220   -2.2600 C   0  0
    1.0220    2.9650    0.5610 C   0  0
    0.4280    3.7540   -1.6880 C   0  0
    0.3850   -4.1490   -0.6620 C   0  0
    1.5350   -1.9800   -0.7680 C   0  0
   -2.1170   -4.2580   -1.0410 C   0  0
    1.5310    4.2720    0.8750 C   0  0
    1.0920    1.9550    1.5680 C   0  0
    0.9300    5.0350   -1.3770 C   0  0
    1.6470   -4.7950   -0.6250 C   0  0
   -0.8420   -4.9900   -0.6090 C   0  0
    2.7850   -2.6350   -0.7210 C   0  0
    2.0720    4.5410    2.1190 N   0  0
    1.4790    5.2950   -0.1040 C   0  0
    1.6500    2.2560    2.8360 C   0  0
    2.8420   -4.0430   -0.6540 C   0  0
    2.1350    3.5610    3.0860 C   0  0
    2.7150    3.8830    4.3990 C   0  0
   -3.7520   -0.5880   -0.2440 H   0  0
   -1.6820    1.0430   -2.2990 H   0  0
   -1.9770    2.2870   -1.1210 H   0  0
   -1.1030   -1.0510    1.1450 H   0  0
    0.0160   -0.3110    0.1350 H   0  0
    0.6000    0.7400   -1.2320 H   0  0
   -3.1230   -2.3870   -0.6460 H   0  0
   -2.1950   -3.0000    0.6930 H   0  0
   -0.8910   -0.4840   -2.3970 H   0  0
   -2.2460   -1.6020   -2.5430 H   0  0
   -0.6190   -2.1350   -2.9510 H   0  0
    0.0160    3.5940   -2.6740 H   0  0
    1.5160   -0.9020   -0.8240 H   0  0
   -2.1430   -4.1580   -2.1270 H   0  0
   -2.9940   -4.8460   -0.7640 H   0  0
    0.7270    0.9530    1.3970 H   0  0
    0.8930    5.8220   -2.1170 H   0  0
    1.6990   -5.8730   -0.5740 H   0  0
   -0.9630   -5.3420    0.4160 H   0  0
   -0.7150   -5.8790   -1.2290 H   0  0
    3.6970   -2.0590   -0.7380 H   0  0
    1.8560    6.2850    0.1110 H   0  0
    1.7030    1.4920    3.5980 H   0  0
    3.7950   -4.5470   -0.6230 H   0  0
    3.0180    4.9300    4.4140 H   0  0
    1.9980    3.6390    5.1820 H   0  0
    3.6060    3.2750    4.5590 H   0  0
  1  2  1  0
  2  3  1  0
  2  4  1  0
  2  5  1  0
  5  6  1  0
  5  7  1  0
  5  8  1  0
  7  9  1  0
  8 10  1  0
  9 11  1  0
 10 12  1  0
 10 13  1  0
 10 14  1  0
 11 15  2  0
 11 16  1  0
 12 17  2  0
 12 18  1  0
 13 19  1  0
 15 20  1  0
 15 21  1  0
 16 22  2  0
 17 23  1  0
 17 24  1  0
 18 25  2  0
 20 26  1  0
 20 27  2  0
 21 28  2  0
 23 29  2  0
 26 30  2  0
 30 31  1  0
 19 24  1  0
 22 27  1  0
 25 29  1  0
 28 30  1  0
  6 32  1  0
  7 33  1  0
  7 34  1  0
  8 35  1  0
  8 36  1  0
  9 37  1  0
 13 38  1  0
 13 39  1  0
 14 40  1  0
 14 41  1  0
 14 42  1  0
 16 43  1  0
 18 44  1  0
 19 45  1  0
 19 46  1  0
 21 47  1  0
 22 48  1  0
 23 49  1  0
 24 50  1  0
 24 51  1  0
 25 52  1  0
 27 53  1  0
 28 54  1  0
 29 55  1  0
 31 56  1  0
 31 57  1  0
 31 58  1  0
M  END
> <Name>
CHEMBL238360

> <IC50 nM>
5.01

> <Molecule_ChEMBL_ID>
CHEMBL238360

> <Smiles>
Cc1ccc2c(NCC(O)(CC3(C)CCCc4ccccc43)C(F)(F)F)cccc2n1

$$$$
CHEMBL384081
  SciTegic08162514323D

 54 56  0  0  1  0            999 V2000
    2.4160    1.7890    1.5160 F   0  0
    2.2930    0.6090    0.8300 C   0  0
    3.2480    0.5490   -0.1520 F   0  0
    2.4630   -0.4410    1.6950 F   0  0
    0.9040    0.5290    0.1970 C   0  0  1  0  0  0
   -0.0490    0.8670    1.1800 O   0  0
    0.7360    1.4900   -0.9800 C   0  0
    0.6880   -0.9320   -0.1970 C   0  0
    0.7970    2.8960   -0.5310 N   0  0
   -0.4590   -1.5860    0.5740 C   0  0
   -0.3440    3.6170   -0.2830 C   0  0
    2.0550    3.4510   -0.3690 C   0  0
   -0.3440   -2.8870   -0.1410 C   0  0
   -0.1600   -1.7340    2.0670 C   0  0
   -1.8080   -0.9160    0.3070 C   0  0
   -0.2520    4.9770    0.1490 C   0  0
   -1.6370    3.0430   -0.4470 C   0  0
    2.2370    4.7250    0.0350 C   0  0
   -0.8870   -3.0390   -1.4320 C   0  0
    0.3130   -3.9650    0.4810 C   0  0
    1.0880    5.6070    0.3280 C   0  0
   -1.4240    5.7320    0.4080 C   0  0
   -2.8030    3.8010   -0.1850 C   0  0
   -1.5040   -2.0350   -2.0230 O   0  0
   -0.7670   -4.2750   -2.0940 C   0  0
    0.4280   -5.1970   -0.1850 C   0  0
    1.3300    6.7380    0.6820 O   0  0
   -2.6950    5.1430    0.2420 C   0  0
   -0.1130   -5.3520   -1.4730 C   0  0
    1.1210   -6.3360    0.4730 C   0  0
   -0.8050    1.2660    0.7210 H   0  0
   -0.2110    1.3160   -1.4880 H   0  0
    1.5120    1.3200   -1.7280 H   0  0
    0.5310   -1.0220   -1.2710 H   0  0
    1.6080   -1.5040   -0.0780 H   0  0
    2.9460    2.8690   -0.5660 H   0  0
   -0.7030   -2.5700    2.5080 H   0  0
   -0.4370   -0.8300    2.6080 H   0  0
    0.9040   -1.9060    2.2290 H   0  0
   -2.5900   -1.6470    0.0980 H   0  0
   -1.7420   -0.2440   -0.5490 H   0  0
   -2.1230   -0.3280    1.1680 H   0  0
   -1.7620    2.0200   -0.7730 H   0  0
    3.2420    5.1070    0.1450 H   0  0
    0.7290   -3.8440    1.4710 H   0  0
   -1.3550    6.7600    0.7360 H   0  0
   -3.7770    3.3520   -0.3120 H   0  0
   -1.8750   -2.1640   -2.9040 H   0  0
   -1.1820   -4.3970   -3.0840 H   0  0
   -3.5880    5.7170    0.4420 H   0  0
   -0.0270   -6.2970   -1.9900 H   0  0
    1.1040   -7.2030   -0.1870 H   0  0
    2.1330   -6.0350    0.7480 H   0  0
    0.5940   -6.6040    1.3890 H   0  0
  1  2  1  0
  2  3  1  0
  2  4  1  0
  2  5  1  0
  5  6  1  0
  5  7  1  0
  5  8  1  0
  7  9  1  0
  8 10  1  0
  9 11  1  0
  9 12  1  0
 10 13  1  0
 10 14  1  0
 10 15  1  0
 11 16  2  0
 11 17  1  0
 12 18  2  0
 13 19  2  0
 13 20  1  0
 16 21  1  0
 16 22  1  0
 17 23  2  0
 19 24  1  0
 19 25  1  0
 20 26  2  0
 21 27  2  0
 22 28  2  0
 25 29  2  0
 26 30  1  0
 18 21  1  0
 23 28  1  0
 26 29  1  0
  6 31  1  0
  7 32  1  0
  7 33  1  0
  8 34  1  0
  8 35  1  0
 12 36  1  0
 14 37  1  0
 14 38  1  0
 14 39  1  0
 15 40  1  0
 15 41  1  0
 15 42  1  0
 17 43  1  0
 18 44  1  0
 20 45  1  0
 22 46  1  0
 23 47  1  0
 24 48  1  0
 25 49  1  0
 28 50  1  0
 29 51  1  0
 30 52  1  0
 30 53  1  0
 30 54  1  0
M  END
> <Name>
CHEMBL384081

> <IC50 nM>
8

> <Molecule_ChEMBL_ID>
CHEMBL384081

> <Smiles>
Cc1ccc(O)c(C(C)(C)CC(O)(Cn2ccc(=O)c3ccccc32)C(F)(F)F)c1

$$$$
CHEMBL373567
  SciTegic08162514323D

 54 56  0  0  1  0            999 V2000
    1.5230    2.5200   -1.6040 F   0  0
    0.6640    1.5040   -1.9300 C   0  0
   -0.6090    1.8420   -1.5490 F   0  0
    0.6950    1.2950   -3.2850 F   0  0
    1.0880    0.2250   -1.2070 C   0  0  1  0  0  0
    2.4490   -0.0100   -1.4880 O   0  0
    0.9240    0.3220    0.3100 C   0  0
    0.2710   -0.9140   -1.8180 C   0  0
    0.9820    1.7290    0.7600 N   0  0
    0.7090   -2.2890   -1.3150 C   0  0
   -0.1580    2.4490    1.0080 C   0  0
    2.2400    2.2830    0.9220 C   0  0
   -0.2440   -2.2990   -0.1720 C   0  0
    0.4020   -3.4080   -2.3130 C   0  0
    2.1600   -2.3090   -0.8360 C   0  0
   -0.0660    3.8110    1.4390 C   0  0
   -1.4510    1.8750    0.8440 C   0  0
    2.4240    3.5590    1.3260 C   0  0
   -1.6330   -2.3790   -0.3950 C   0  0
    0.2500   -2.2250    1.1430 C   0  0
    1.2750    4.4390    1.6190 C   0  0
   -1.2380    4.5640    1.6990 C   0  0
   -2.6150    2.6330    1.1050 C   0  0
   -2.5180   -2.3850    0.6970 C   0  0
   -2.1780   -2.4590   -1.7770 C   0  0
   -0.6350   -2.2310    2.2340 C   0  0
    1.5160    5.5700    1.9730 O   0  0
   -2.5100    3.9750    1.5330 C   0  0
   -2.0200   -2.3110    2.0100 C   0  0
   -0.1680   -2.1600    3.4650 O   0  0
    2.9650    0.4160   -0.7850 H   0  0
    1.6990   -0.2500    0.8200 H   0  0
   -0.0250   -0.1150    0.6230 H   0  0
   -0.7930   -0.7600   -1.6430 H   0  0
    0.3050   -0.8730   -2.9060 H   0  0
    3.1310    1.7010    0.7250 H   0  0
    1.2360   -4.1020   -2.4140 H   0  0
    0.1890   -2.9960   -3.2990 H   0  0
   -0.4710   -3.9790   -1.9940 H   0  0
    2.4360   -3.2740   -0.4100 H   0  0
    2.3240   -1.5490   -0.0720 H   0  0
    2.8420   -2.1040   -1.6640 H   0  0
   -1.5740    0.8520    0.5180 H   0  0
    3.4280    3.9390    1.4350 H   0  0
    1.3140   -2.1620    1.3160 H   0  0
   -1.1680    5.5920    2.0270 H   0  0
   -3.5900    2.1840    0.9780 H   0  0
   -3.5840   -2.4470    0.5330 H   0  0
   -2.4790   -3.4840   -1.9920 H   0  0
   -2.9960   -1.7480   -1.8870 H   0  0
   -1.4000   -2.1840   -2.4900 H   0  0
   -3.4000    4.5490    1.7320 H   0  0
   -2.7050   -2.3160    2.8440 H   0  0
    0.7850   -2.1060    3.6070 H   0  0
  1  2  1  0
  2  3  1  0
  2  4  1  0
  2  5  1  0
  5  6  1  0
  5  7  1  0
  5  8  1  0
  7  9  1  0
  8 10  1  0
  9 11  1  0
  9 12  1  0
 10 13  1  0
 10 14  1  0
 10 15  1  0
 11 16  2  0
 11 17  1  0
 12 18  2  0
 13 19  2  0
 13 20  1  0
 16 21  1  0
 16 22  1  0
 17 23  2  0
 19 24  1  0
 19 25  1  0
 20 26  2  0
 21 27  2  0
 22 28  2  0
 24 29  2  0
 26 30  1  0
 18 21  1  0
 23 28  1  0
 26 29  1  0
  6 31  1  0
  7 32  1  0
  7 33  1  0
  8 34  1  0
  8 35  1  0
 12 36  1  0
 14 37  1  0
 14 38  1  0
 14 39  1  0
 15 40  1  0
 15 41  1  0
 15 42  1  0
 17 43  1  0
 18 44  1  0
 20 45  1  0
 22 46  1  0
 23 47  1  0
 24 48  1  0
 25 49  1  0
 25 50  1  0
 25 51  1  0
 28 52  1  0
 29 53  1  0
 30 54  1  0
M  END
> <Name>
CHEMBL373567

> <IC50 nM>
780

> <Molecule_ChEMBL_ID>
CHEMBL373567

> <Smiles>
Cc1ccc(O)cc1C(C)(C)CC(O)(Cn1ccc(=O)c2ccccc21)C(F)(F)F

$$$$
CHEMBL218778
  SciTegic08162514323D

 52 53  0  0  1  0            999 V2000
   -4.1990    2.8260   -2.8010 F   0  0
   -3.4020    2.9770   -1.7440 C   0  0
   -2.1740    2.2990   -1.6880 C   0  0
   -3.7910    3.8150   -0.6860 C   0  0
   -1.3320    2.4570   -0.5700 C   0  0
   -2.9510    3.9750    0.4300 C   0  0
   -1.7210    3.2970    0.4920 C   0  0
   -0.0330    1.7340   -0.5200 C   0  0
   -0.9390    3.4530    1.5430 O   0  0
   -0.5490    0.6390    0.4140 C   0  0
    1.0630    2.5880    0.1190 C   0  0
    0.3650    1.1970   -1.8950 C   0  0
   -1.4320    4.2250    2.6290 C   0  0
    0.4630   -0.4900    0.6170 C   0  0  1  0  0  0
    1.7460    0.0820    0.7240 O   0  0
    0.1190   -1.1480    1.9530 C   0  0
    0.4770   -1.4840   -0.5450 C   0  0
    0.0200   -0.1860    2.9240 F   0  0
    1.1040   -2.0390    2.2890 F   0  0
   -1.0780   -1.8090    1.8420 F   0  0
    1.1170   -2.7300   -0.1410 N   0  0
    2.4820   -2.8280   -0.6740 C   0  0
    0.2970   -3.8950   -0.5060 C   0  0
    3.2010   -4.0820   -0.1470 C   0  0
    0.9100   -5.2010    0.0270 C   0  0
    2.3710   -5.3280   -0.3340 C   0  0
    2.8420   -6.3590   -0.7520 O   0  0
   -1.8750    1.6540   -2.5020 H   0  0
   -4.7340    4.3400   -0.7250 H   0  0
   -3.2540    4.6190    1.2420 H   0  0
   -1.5000    0.2440    0.0560 H   0  0
   -0.8540    1.0610    1.3710 H   0  0
    0.9160    3.6500   -0.0760 H   0  0
    2.0430    2.3090   -0.2660 H   0  0
    1.0780    2.4470    1.2010 H   0  0
    0.2850    1.9610   -2.6680 H   0  0
   -0.2750    0.3630   -2.1840 H   0  0
    1.3950    0.8380   -1.8850 H   0  0
   -1.5290    5.2580    2.2970 H   0  0
   -2.3380    3.7500    3.0020 H   0  0
   -0.6890    4.2010    3.4280 H   0  0
    2.1540    0.0350   -0.1540 H   0  0
    1.0040   -1.0660   -1.4030 H   0  0
   -0.5370   -1.6890   -0.8890 H   0  0
    3.0490   -1.9370   -0.3970 H   0  0
    2.4450   -2.8500   -1.7660 H   0  0
   -0.7090   -3.7730   -0.1040 H   0  0
    0.1990   -3.9430   -1.5920 H   0  0
    3.4200   -3.9630    0.9140 H   0  0
    4.1600   -4.1990   -0.6510 H   0  0
    0.8140   -5.2380    1.1130 H   0  0
    0.3570   -6.0550   -0.3630 H   0  0
  1  2  1  0
  2  3  2  0
  2  4  1  0
  3  5  1  0
  4  6  2  0
  5  7  2  0
  5  8  1  0
  7  9  1  0
  8 10  1  0
  8 11  1  0
  8 12  1  0
  9 13  1  0
 10 14  1  0
 14 15  1  0
 14 16  1  0
 14 17  1  0
 16 18  1  0
 16 19  1  0
 16 20  1  0
 17 21  1  0
 21 22  1  0
 21 23  1  0
 22 24  1  0
 23 25  1  0
 24 26  1  0
 26 27  2  0
  6  7  1  0
 25 26  1  0
  3 28  1  0
  4 29  1  0
  6 30  1  0
 10 31  1  0
 10 32  1  0
 11 33  1  0
 11 34  1  0
 11 35  1  0
 12 36  1  0
 12 37  1  0
 12 38  1  0
 13 39  1  0
 13 40  1  0
 13 41  1  0
 15 42  1  0
 17 43  1  0
 17 44  1  0
 22 45  1  0
 22 46  1  0
 23 47  1  0
 23 48  1  0
 24 49  1  0
 24 50  1  0
 25 51  1  0
 25 52  1  0
M  END
> <Name>
CHEMBL218778

> <IC50 nM>
1400

> <Molecule_ChEMBL_ID>
CHEMBL218778

> <Smiles>
COc1ccc(F)cc1C(C)(C)CC(O)(CN1CCC(=O)CC1)C(F)(F)F

$$$$
CHEMBL65868
  SciTegic08162514323D

 49 52  0  0  1  0            999 V2000
   -4.3590   -2.0080    0.9000 S   0  0
   -4.1600   -2.8440   -0.2720 O   0  0
   -3.9920   -2.6660    2.1430 O   0  0
   -3.4100   -0.7070    0.7380 N   0  0
   -6.0840   -1.5370    0.9840 C   0  0
   -2.0780   -0.8520    0.6820 C   0  0
   -1.2360    0.2810    0.5620 C   0  0
   -1.4960   -2.1370    0.7360 C   0  0
    0.1800    0.1410    0.5020 C   0  0
   -0.0940   -2.2930    0.6890 C   0  0
    0.7640   -1.1580    0.6020 C   0  0
    1.0660    1.3400    0.3590 C   0  0  1  0  0  0
    2.2460   -1.2730    0.6030 C   0  0
    2.3730    1.0230   -0.1410 O   0  0
    0.5020    2.3870   -0.5430 C   0  0
    2.9900   -0.1310    0.1820 C   0  0
    2.9670   -2.4490    0.9940 C   0  0
    0.0330    3.6000   -0.0080 C   0  0
    0.4380    2.1620   -1.9300 C   0  0
    4.3990   -0.1860    0.0800 C   0  0
    2.3610   -3.5430    1.4770 O   0  0
    4.3770   -2.4840    0.8960 C   0  0
   -0.4980    4.5860   -0.8570 C   0  0
   -0.0940    3.1480   -2.7790 C   0  0
    5.0920   -1.3610    0.4340 C   0  0
    3.0630   -4.7760    1.4060 C   0  0
   -0.5610    4.3610   -2.2440 C   0  0
   -1.1230    5.4040   -3.1430 C   0  0
   -3.8160    0.2050    0.6800 H   0  0
   -6.7720   -2.3750    1.0940 H   0  0
   -6.3570   -0.9960    0.0780 H   0  0
   -6.2360   -0.8670    1.8300 H   0  0
   -1.6820    1.2660    0.5190 H   0  0
   -2.1150   -3.0200    0.8160 H   0  0
    0.2720   -3.3050    0.7190 H   0  0
    1.1910    1.7770    1.3520 H   0  0
    0.0800    3.7790    1.0570 H   0  0
    0.7970    1.2320   -2.3480 H   0  0
    4.9490    0.6780   -0.2660 H   0  0
    4.9140   -3.3770    1.1800 H   0  0
   -0.8550    5.5160   -0.4390 H   0  0
   -0.1390    2.9690   -3.8440 H   0  0
    6.1680   -1.4000    0.3530 H   0  0
    2.3710   -5.5760    1.6680 H   0  0
    3.5350   -4.8460    0.4280 H   0  0
    3.8540   -4.7620    2.1560 H   0  0
   -1.1270    5.1310   -4.1970 H   0  0
   -0.5470    6.3220   -3.0390 H   0  0
   -2.1500    5.6210   -2.8500 H   0  0
  1  2  2  0
  1  3  2  0
  1  4  1  0
  1  5  1  0
  4  6  1  0
  6  7  2  0
  6  8  1  0
  7  9  1  0
  8 10  2  0
  9 11  2  0
  9 12  1  0
 11 13  1  0
 12 14  1  0
 12 15  1  0
 13 16  2  0
 13 17  1  0
 15 18  2  0
 15 19  1  0
 16 20  1  0
 17 21  1  0
 17 22  2  0
 18 23  1  0
 19 24  2  0
 20 25  2  0
 21 26  1  0
 23 27  2  0
 27 28  1  0
 10 11  1  0
 14 16  1  0
 22 25  1  0
 24 27  1  0
  4 29  1  0
  5 30  1  0
  5 31  1  0
  5 32  1  0
  7 33  1  0
  8 34  1  0
 10 35  1  0
 12 36  1  0
 18 37  1  0
 19 38  1  0
 20 39  1  0
 22 40  1  0
 23 41  1  0
 24 42  1  0
 25 43  1  0
 26 44  1  0
 26 45  1  0
 26 46  1  0
 28 47  1  0
 28 48  1  0
 28 49  1  0
M  END
> <Name>
CHEMBL65868

> <IC50 nM>
7

> <Molecule_ChEMBL_ID>
CHEMBL65868

> <Smiles>
COc1cccc2c1-c1ccc(NS(C)(=O)=O)cc1C(c1ccc(C)cc1)O2

$$$$
CHEMBL3358932
  SciTegic08162514323D

 60 63  0  0  1  0            999 V2000
    0.3520    4.4450    1.8690 F   0  0
    0.7070    3.3540    1.1190 C   0  0
   -0.0020    3.3560   -0.0550 F   0  0
    2.0490    3.4060    0.8420 F   0  0
    0.3970    2.0760    1.8990 C   0  0  1  0  0  0
   -0.7780    1.5080    1.3650 O   0  0
    1.5160    1.0390    1.8030 C   0  0
    0.1100    2.5030    3.3390 C   0  0
    1.5920    0.4410    0.4140 C   0  0
   -1.3840    2.6580    3.6220 C   0  0
    2.3880    0.9880   -0.6250 N   0  0
    0.9300   -0.6990   -0.0830 C   0  0
   -2.0810    1.3450    3.6220 C   0  0
   -1.6640    3.4430    4.9040 C   0  0
   -2.1600    3.1970    2.4200 C   0  0
    2.2030    0.1780   -1.7310 C   0  0
    1.3270   -0.8140   -1.3690 C   0  0
   -3.4860    1.2930    3.6220 C   0  0
   -1.3340    0.1520    3.6220 C   0  0
    2.7050    0.1840   -3.0480 C   0  0
    0.9300   -1.8170   -2.2990 C   0  0
   -4.1440    0.0500    3.6220 C   0  0
   -1.9930   -1.0890    3.6220 C   0  0
    2.3650   -0.7550   -3.9970 N   0  0
    1.4750   -1.7570   -3.6210 C   0  0
   -3.3970   -1.1400    3.6220 C   0  0
    1.1260   -2.6860   -4.5270 N   0  0
    1.1420   -2.3970   -5.9830 C   0  0
    0.7050   -4.0500   -4.1210 C   0  0
    1.7410   -3.5710   -6.7870 C   0  0
    1.3300   -5.1300   -5.0320 C   0  0
    1.1420   -4.8030   -6.4030 O   0  0
   -0.6540    0.5460    1.3610 H   0  0
    1.3690    0.2440    2.5330 H   0  0
    2.4770    1.4850    2.0590 H   0  0
    0.5660    1.8090    4.0450 H   0  0
    0.6460    3.4210    3.5820 H   0  0
    2.9660    1.7950   -0.5700 H   0  0
    0.2480   -1.3430    0.4560 H   0  0
   -2.7320    3.5350    5.0990 H   0  0
   -1.2490    4.4490    4.8380 H   0  0
   -1.2090    2.9510    5.7640 H   0  0
   -2.9280    3.9010    2.7400 H   0  0
   -1.4890    3.6960    1.7210 H   0  0
   -2.6540    2.3850    1.8850 H   0  0
   -4.0660    2.2040    3.6220 H   0  0
   -0.2540    0.1850    3.6220 H   0  0
    3.3950    0.9660   -3.3300 H   0  0
    0.2370   -2.5950   -2.0070 H   0  0
   -5.2230    0.0110    3.6220 H   0  0
   -1.4190   -2.0050    3.6220 H   0  0
   -3.9030   -2.0950    3.6220 H   0  0
    1.7020   -1.4840   -6.1940 H   0  0
    0.1150   -2.2150   -6.3040 H   0  0
   -0.3830   -4.1010   -4.1800 H   0  0
    0.9710   -4.2480   -3.0810 H   0  0
    2.8180   -3.6440   -6.6310 H   0  0
    1.5760   -3.4300   -7.8550 H   0  0
    2.4000   -5.2320   -4.8410 H   0  0
    0.8720   -6.1020   -4.8460 H   0  0
  1  2  1  0
  2  3  1  0
  2  4  1  0
  2  5  1  0
  5  6  1  0
  5  7  1  0
  5  8  1  0
  7  9  1  0
  8 10  1  0
  9 11  1  0
  9 12  2  0
 10 13  1  0
 10 14  1  0
 10 15  1  0
 11 16  1  0
 12 17  1  0
 13 18  2  0
 13 19  1  0
 16 20  1  0
 17 21  1  0
 18 22  1  0
 19 23  2  0
 20 24  2  0
 21 25  2  0
 22 26  2  0
 25 27  1  0
 27 28  1  0
 27 29  1  0
 28 30  1  0
 29 31  1  0
 30 32  1  0
 16 17  2  0
 23 26  1  0
 24 25  1  0
 31 32  1  0
  6 33  1  0
  7 34  1  0
  7 35  1  0
  8 36  1  0
  8 37  1  0
 11 38  1  0
 12 39  1  0
 14 40  1  0
 14 41  1  0
 14 42  1  0
 15 43  1  0
 15 44  1  0
 15 45  1  0
 18 46  1  0
 19 47  1  0
 20 48  1  0
 21 49  1  0
 22 50  1  0
 23 51  1  0
 26 52  1  0
 28 53  1  0
 28 54  1  0
 29 55  1  0
 29 56  1  0
 30 57  1  0
 30 58  1  0
 31 59  1  0
 31 60  1  0
M  END
> <Name>
CHEMBL3358932

> <IC50 nM>
17

> <Molecule_ChEMBL_ID>
CHEMBL3358932

> <Smiles>
CC(C)(CC(O)(Cc1cc2cc(N3CCOCC3)ncc2[nH]1)C(F)(F)F)c1ccccc1

$$$$
CHEMBL3358949
  SciTegic08162514323D

 60 62  0  0  1  0            999 V2000
    5.1760   -1.3160    1.5040 S   0  0
    5.2600   -1.9760    2.7970 O   0  0
    5.1460   -2.2460    0.3890 O   0  0
    3.7400   -0.3850    1.4690 C   0  0
    6.5860   -0.2320    1.3160 C   0  0
    3.8340    1.0020    1.5190 N   0  0
    2.4800   -1.0530    1.3850 C   0  0
    7.8850   -1.0390    1.3180 C   0  0
    2.6540    1.7170    1.4880 C   0  0
    1.3030   -0.2520    1.3570 C   0  0
    1.3830    1.1170    1.4060 C   0  0
    0.0270   -0.6870    1.2850 C   0  0
    0.0880    1.6060    1.3610 N   0  0
   -0.7680    0.4770    1.2850 C   0  0
   -2.2770    0.5820    1.2210 C   0  0
   -2.9180   -0.7810    0.9650 C   0  0  2  0  0  0
   -4.3150   -0.6070    0.8940 O   0  0
   -2.6040   -1.6460    2.1850 C   0  0
   -2.4490   -1.4180   -0.3440 C   0  0
   -3.7680   -1.9390    2.8500 F   0  0
   -1.7600   -0.9650    3.0230 F   0  0
   -2.0040   -2.8100    1.7810 F   0  0
   -2.8770   -0.6190   -1.5760 C   0  0
   -1.6510    0.2230   -1.5920 C   0  0
   -2.9850   -1.4840   -2.8320 C   0  0
   -4.1310    0.2190   -1.3280 C   0  0
   -1.7380    1.6290   -1.6390 C   0  0
   -0.3890   -0.3980   -1.5610 C   0  0
   -3.0700    2.3110   -1.6720 C   0  0
   -0.5650    2.4040   -1.6540 C   0  0
    0.7810    0.3790   -1.5760 C   0  0
   -3.6250    2.6410   -0.6500 O   0  0
   -3.6510    2.5570   -2.8850 N   0  0
    0.6930    1.7790   -1.6230 C   0  0
    6.4860    0.3360    0.3920 H   0  0
    6.5880    0.5040    2.1210 H   0  0
    2.4260   -2.1310    1.3460 H   0  0
    8.0120   -1.5680    0.3750 H   0  0
    8.7420   -0.3870    1.4780 H   0  0
    7.8770   -1.7810    2.1170 H   0  0
    2.7150    2.7950    1.5270 H   0  0
   -0.3180   -1.7130    1.2340 H   0  0
   -0.1900    2.5610    1.3810 H   0  0
   -2.5570    1.2910    0.4410 H   0  0
   -2.6510    1.0160    2.1480 H   0  0
   -4.6990   -1.4690    0.6680 H   0  0
   -2.7910   -2.4490   -0.4160 H   0  0
   -1.3690   -1.5640   -0.3360 H   0  0
   -2.0880   -2.0840   -2.9880 H   0  0
   -3.1290   -0.8630   -3.7150 H   0  0
   -3.8340   -2.1640   -2.7600 H   0  0
   -4.0060    0.8990   -0.4840 H   0  0
   -4.9870   -0.4220   -1.1130 H   0  0
   -4.3750    0.8170   -2.2050 H   0  0
   -0.3130   -1.4740   -1.5260 H   0  0
   -0.6210    3.4830   -1.6900 H   0  0
    1.7480   -0.1010   -1.5530 H   0  0
   -3.2130    2.2910   -3.7420 H   0  0
   -4.5390    3.0120   -2.9320 H   0  0
    1.5940    2.3770   -1.6350 H   0  0
  1  2  2  0
  1  3  2  0
  1  4  1  0
  1  5  1  0
  4  6  2  0
  4  7  1  0
  5  8  1  0
  6  9  1  0
  7 10  2  0
  9 11  2  0
 10 12  1  0
 11 13  1  0
 12 14  2  0
 14 15  1  0
 15 16  1  0
 16 17  1  0
 16 18  1  0
 16 19  1  0
 18 20  1  0
 18 21  1  0
 18 22  1  0
 19 23  1  0
 23 24  1  0
 23 25  1  0
 23 26  1  0
 24 27  2  0
 24 28  1  0
 27 29  1  0
 27 30  1  0
 28 31  2  0
 29 32  2  0
 29 33  1  0
 30 34  2  0
 10 11  1  0
 13 14  1  0
 31 34  1  0
  5 35  1  0
  5 36  1  0
  7 37  1  0
  8 38  1  0
  8 39  1  0
  8 40  1  0
  9 41  1  0
 12 42  1  0
 13 43  1  0
 15 44  1  0
 15 45  1  0
 17 46  1  0
 19 47  1  0
 19 48  1  0
 25 49  1  0
 25 50  1  0
 25 51  1  0
 26 52  1  0
 26 53  1  0
 26 54  1  0
 28 55  1  0
 30 56  1  0
 31 57  1  0
 33 58  1  0
 33 59  1  0
 34 60  1  0
M  END
> <Name>
CHEMBL3358949

> <IC50 nM>
100

> <Molecule_ChEMBL_ID>
CHEMBL3358949

> <Smiles>
CCS(=O)(=O)c1cc2cc(CC(O)(CC(C)(C)c3ccccc3C(N)=O)C(F)(F)F)[nH]c2cn1

$$$$
CHEMBL551269
  SciTegic08162514323D

 60 64  0  0  1  0            999 V2000
    6.6990    0.9100    0.6250 O   0  0
    5.4980    0.8980    0.7620 C   0  0
    4.7540   -0.2050    0.4040 N   0  0
    4.8110    2.0800    1.3180 C   0  0
    3.2770   -0.1860    0.6410 C   0  0  1  0  0  0
    5.4160   -1.3870   -0.1820 C   0  0
    3.4790    2.2480    1.1800 C   0  0
    2.6720    1.2320    0.3850 C   0  0  2  0  0  0
    2.5210   -1.2870   -0.1290 C   0  0
    1.1660    1.2230    0.7730 C   0  0  2  0  0  0
    2.8140    1.6150   -1.1000 C   0  0
    1.0290   -1.2770    0.2290 C   0  0
    0.4080    0.1090   -0.0020 C   0  0  1  0  0  0
    0.4610    2.5940    0.6050 C   0  0
   -1.0570    0.1210    0.4610 C   0  0  1  0  0  0
   -1.0370    2.5510    0.9690 C   0  0
   -1.7400    1.4690    0.1450 C   0  0  2  0  0  0
   -2.0180   -0.9040   -0.1480 C   0  0
   -3.1880    1.1440    0.5660 C   0  0  2  0  0  0
   -1.6600    1.7690   -1.3630 C   0  0
   -3.3650   -0.2850    0.1230 C   0  0
   -4.1190    2.0330   -0.0250 O   0  0
   -4.5550   -0.9120   -0.0020 C   0  0
   -4.6660   -2.3340   -0.4510 C   0  0
   -5.4860   -3.2460    0.2460 C   0  0
   -3.9510   -2.7890   -1.5800 C   0  0
   -5.5840   -4.5450   -0.1680 N   0  0
   -4.0570   -4.0900   -1.9860 N   0  0
   -4.8670   -4.9220   -1.2700 C   0  0
    5.3830    2.8260    1.8500 H   0  0
    3.1480   -0.4080    1.7010 H   0  0
    6.4300   -1.1210   -0.4770 H   0  0
    5.3730   -2.2130    0.5310 H   0  0
    4.8770   -1.6930   -1.0780 H   0  0
    3.0100    3.1050    1.6330 H   0  0
    2.9280   -2.2720    0.1090 H   0  0
    2.6410   -1.1520   -1.2050 H   0  0
    1.1090    0.9750    1.8360 H   0  0
    3.8550    1.5960   -1.4260 H   0  0
    2.4300    2.6190   -1.2750 H   0  0
    2.2540    0.9280   -1.7300 H   0  0
    0.5080   -2.0290   -0.3630 H   0  0
    0.9080   -1.5670    1.2730 H   0  0
    0.4510    0.3180   -1.0700 H   0  0
    0.5740    2.9450   -0.4200 H   0  0
    0.9340    3.3480    1.2320 H   0  0
   -1.0650   -0.0330    1.5330 H   0  0
   -1.1500    2.3480    2.0350 H   0  0
   -1.4980    3.5230    0.7890 H   0  0
   -1.9180   -1.8730    0.3200 H   0  0
   -1.8650   -1.0160   -1.2130 H   0  0
   -3.3050    1.2030    1.6390 H   0  0
   -2.1660    2.6990   -1.6190 H   0  0
   -2.1230    0.9690   -1.9410 H   0  0
   -0.6230    1.8550   -1.6860 H   0  0
   -4.9810    1.8590    0.3830 H   0  0
   -5.4630   -0.3770    0.2270 H   0  0
   -6.0430   -2.9240    1.1130 H   0  0
   -3.3170   -2.1130   -2.1330 H   0  0
   -4.9490   -5.9490   -1.5940 H   0  0
  1  2  2  0
  2  3  1  0
  2  4  1  0
  5  3  1  0
  3  6  1  0
  4  7  2  0
  5  8  1  0
  5  9  1  0
  8 10  1  0
  8 11  1  0
  9 12  1  0
 10 13  1  0
 10 14  1  0
 13 15  1  0
 14 16  1  0
 15 17  1  0
 15 18  1  0
 17 19  1  0
 17 20  1  0
 18 21  1  0
 19 22  1  0
 21 23  2  0
 23 24  1  0
 24 25  2  0
 24 26  1  0
 25 27  1  0
 26 28  2  0
 27 29  2  0
  7  8  1  0
 13 12  1  0
 16 17  1  0
 19 21  1  0
 28 29  1  0
  4 30  1  0
  5 31  1  0
  6 32  1  0
  6 33  1  0
  6 34  1  0
  7 35  1  0
  9 36  1  0
  9 37  1  0
 10 38  1  0
 11 39  1  0
 11 40  1  0
 11 41  1  0
 12 42  1  0
 12 43  1  0
 13 44  1  0
 14 45  1  0
 14 46  1  0
 15 47  1  0
 16 48  1  0
 16 49  1  0
 18 50  1  0
 18 51  1  0
 19 52  1  0
 20 53  1  0
 20 54  1  0
 20 55  1  0
 22 56  1  0
 23 57  1  0
 25 58  1  0
 26 59  1  0
 29 60  1  0
M  END
> <Name>
CHEMBL551269

> <IC50 nM>
1000

> <Molecule_ChEMBL_ID>
CHEMBL551269

> <Smiles>
CN1C(=O)C=C[C@]2(C)[C@H]3CC[C@]4(C)[C@@H](O)/C(=C/c5cncnc5)C[C@H]4[C@@H]3CC[C@@H]12

$$$$
CHEMBL1094231
  SciTegic08162514323D

 42 45  0  0  1  0            999 V2000
   -1.4900   -3.6230    4.3890 Cl  0  0
   -1.8050   -3.6470    2.6990 C   0  0
   -1.8110   -4.8590    1.9780 C   0  0
   -2.0610   -2.4360    2.0290 C   0  0
   -1.5700   -6.0220    2.5860 F   0  0
   -2.0720   -4.8540    0.5980 C   0  0
   -2.3220   -2.4340    0.6480 C   0  0
   -2.3280   -3.6430   -0.0680 C   0  0
   -2.5920   -1.1520   -0.0570 C   0  0  1  0  0  0
   -3.5390   -0.4060    0.6740 O   0  0
   -1.3440   -0.3810   -0.1680 C   0  0
   -3.2320   -1.3850   -1.4240 C   0  0
   -0.0940   -1.0590   -0.1970 C   0  0
   -1.3910    1.0370   -0.2460 C   0  0
   -2.2970   -1.8910   -2.2890 F   0  0
   -3.7130   -0.1970   -1.9120 F   0  0
   -4.2680   -2.2770   -1.2970 F   0  0
    1.1040   -0.3030   -0.3050 C   0  0
   -0.1910    1.7850   -0.3540 C   0  0
    1.0290    1.0740   -0.3790 C   0  0
    2.3560   -0.8930   -0.3420 C   0  0
    2.3380    1.4300   -0.4690 N   0  0
    3.0860    0.2730   -0.4450 N   0  0
    2.8360    2.6890   -0.5660 C   0  0
    2.3160    3.7190    0.2440 C   0  0
    3.8710    2.9730   -1.4790 C   0  0
    2.8340    5.0220    0.1430 C   0  0
    4.3850    4.2750   -1.5780 C   0  0
    3.8670    5.3010   -0.7680 C   0  0
    4.3560    6.5370   -0.8630 F   0  0
   -2.0570   -1.5000    2.5720 H   0  0
   -2.0760   -5.7790    0.0410 H   0  0
   -2.5290   -3.6470   -1.1290 H   0  0
   -3.1040   -0.1050    1.4860 H   0  0
   -0.0620   -2.1390   -0.1390 H   0  0
   -2.3400    1.5530   -0.2250 H   0  0
   -0.2150    2.8630   -0.4120 H   0  0
    2.7070   -1.9160   -0.3030 H   0  0
    1.5220    3.5230    0.9490 H   0  0
    4.2830    2.1970   -2.1090 H   0  0
    2.4320    5.8070    0.7660 H   0  0
    5.1800    4.4860   -2.2790 H   0  0
  1  2  1  0
  2  3  2  0
  2  4  1  0
  3  5  1  0
  3  6  1  0
  4  7  2  0
  6  8  2  0
  7  9  1  0
  9 10  1  0
  9 11  1  0
  9 12  1  0
 11 13  2  0
 11 14  1  0
 12 15  1  0
 12 16  1  0
 12 17  1  0
 13 18  1  0
 14 19  2  0
 18 20  2  0
 18 21  1  0
 20 22  1  0
 21 23  2  0
 22 24  1  0
 24 25  2  0
 24 26  1  0
 25 27  1  0
 26 28  2  0
 27 29  2  0
 29 30  1  0
  7  8  1  0
 19 20  1  0
 22 23  1  0
 28 29  1  0
  4 31  1  0
  6 32  1  0
  8 33  1  0
 10 34  1  0
 13 35  1  0
 14 36  1  0
 19 37  1  0
 21 38  1  0
 25 39  1  0
 26 40  1  0
 27 41  1  0
 28 42  1  0
M  END
> <Name>
CHEMBL1094231

> <IC50 nM>
117

> <Molecule_ChEMBL_ID>
CHEMBL1094231

> <Smiles>
OC(c1ccc(F)c(Cl)c1)(c1ccc2c(cnn2-c2ccc(F)cc2)c1)C(F)(F)F

$$$$
CHEMBL1094536
  SciTegic08162514323D

 43 46  0  0  1  0            999 V2000
   -1.4590   -6.1040    2.0680 F   0  0
   -1.7190   -4.8970    1.5740 C   0  0
   -1.7870   -3.7600    2.4060 C   0  0
   -1.9300   -4.7640    0.1930 C   0  0
   -1.5740   -3.8790    3.8220 C   0  0
   -2.0620   -2.4960    1.8590 C   0  0
   -2.2070   -3.5020   -0.3590 C   0  0
   -1.4020   -3.9750    4.9670 N   0  0
   -2.2710   -2.3690    0.4750 C   0  0
   -2.5640   -1.0390   -0.1060 C   0  0  1  0  0  0
   -3.4690   -0.3500    0.7280 O   0  0
   -1.3140   -0.2680   -0.2170 C   0  0
   -3.2750   -1.1560   -1.4530 C   0  0
   -0.0660   -0.9450   -0.2480 C   0  0
   -1.3630    1.1500   -0.2950 C   0  0
   -3.8400    0.0490   -1.7790 F   0  0
   -4.2540   -2.1110   -1.3710 F   0  0
   -2.3690   -1.5140   -2.4200 F   0  0
    1.1310   -0.1890   -0.3560 C   0  0
   -0.1640    1.8990   -0.4020 C   0  0
    1.0570    1.1880   -0.4300 C   0  0
    2.3830   -0.7790   -0.3910 C   0  0
    2.3650    1.5430   -0.5200 N   0  0
    3.1130    0.3870   -0.4960 N   0  0
    2.8630    2.8030   -0.6170 C   0  0
    3.9060    3.0820   -1.5200 C   0  0
    2.3360    3.8340    0.1850 C   0  0
    4.4200    4.3870   -1.6190 C   0  0
    2.8520    5.1390    0.0840 C   0  0
    3.8950    5.4140   -0.8180 C   0  0
    4.3830    6.6490   -0.9140 F   0  0
   -1.8810   -5.6270   -0.4610 H   0  0
   -2.1150   -1.6150    2.4920 H   0  0
   -2.3690   -3.3980   -1.4260 H   0  0
   -2.9750   -0.0680    1.5140 H   0  0
   -0.0350   -2.0250   -0.1880 H   0  0
   -2.3120    1.6660   -0.2740 H   0  0
   -0.1870    2.9770   -0.4610 H   0  0
    2.7350   -1.8030   -0.3540 H   0  0
    4.3240    2.3050   -2.1450 H   0  0
    1.5350    3.6410    0.8850 H   0  0
    5.2210    4.5960   -2.3150 H   0  0
    2.4450    5.9260    0.7010 H   0  0
  1  2  1  0
  2  3  2  0
  2  4  1  0
  3  5  1  0
  3  6  1  0
  4  7  2  0
  5  8  3  0
  6  9  2  0
  9 10  1  0
 10 11  1  0
 10 12  1  0
 10 13  1  0
 12 14  2  0
 12 15  1  0
 13 16  1  0
 13 17  1  0
 13 18  1  0
 14 19  1  0
 15 20  2  0
 19 21  2  0
 19 22  1  0
 21 23  1  0
 22 24  2  0
 23 25  1  0
 25 26  2  0
 25 27  1  0
 26 28  1  0
 27 29  2  0
 28 30  2  0
 30 31  1  0
  7  9  1  0
 20 21  1  0
 23 24  1  0
 29 30  1  0
  4 32  1  0
  6 33  1  0
  7 34  1  0
 11 35  1  0
 14 36  1  0
 15 37  1  0
 20 38  1  0
 22 39  1  0
 26 40  1  0
 27 41  1  0
 28 42  1  0
 29 43  1  0
M  END
> <Name>
CHEMBL1094536

> <IC50 nM>
30

> <Molecule_ChEMBL_ID>
CHEMBL1094536

> <Smiles>
Cl.N#Cc1cc(C(O)(c2ccc3c(cnn3-c3ccc(F)cc3)c2)C(F)(F)F)ccc1F

$$$$
CHEMBL557958
  SciTegic08162514323D

105111  0  0  1  0            999 V2000
    7.6920   -3.5060   -1.8260 F   0  0
    7.5590   -2.7890   -0.6520 C   0  0  1  0  0  0
    9.0140   -2.4690   -0.1560 C   0  0  1  0  0  0
    6.6950   -1.5450   -1.0570 C   0  0  2  0  0  0
    6.8360   -3.7210    0.3630 C   0  0  1  0  0  0
    9.7700   -3.7640    0.1640 C   0  0
    9.7520   -1.5800   -1.1560 C   0  0
    9.0100   -1.6970    1.1700 C   0  0
    6.7420   -0.5330   -0.0660 O   0  0
    5.2110   -1.8790   -1.3570 C   0  0
    5.3990   -4.0040   -0.1050 C   0  0  2  0  0  0
    7.6080   -5.0450    0.5550 C   0  0
   11.0310   -3.9860   -0.2660 C   0  0
    9.0550   -4.8010    1.0060 C   0  0
   11.0080   -1.8300   -1.5660 C   0  0
    4.5720   -2.7170   -0.2340 C   0  0  2  0  0  0
    4.5330   -4.8790    0.8030 C   0  0
   11.7400   -3.0100   -1.0980 C   0  0
    3.1500   -3.2810   -0.4670 C   0  0  2  0  0  0
    4.5390   -1.9410    1.0960 C   0  0
    3.0920   -4.3730    0.6310 C   0  0  1  0  0  0
   12.9030   -3.1700   -1.3930 O   0  0
    3.0470   -3.8710   -1.7540 O   0  0
    2.0470   -2.2540   -0.3590 C   0  0
    2.1020   -5.5120    0.3810 C   0  0
    2.2990   -1.0900   -0.1460 O   0  0
    0.7520   -2.6620   -0.5120 N   0  0
   -0.3320   -1.6760   -0.4100 C   0  0
   -1.6950   -2.3380   -0.6090 C   0  0
   -2.7810   -1.3520   -0.5100 N   0  0
   -4.0740   -1.7600   -0.6600 C   0  0
   -4.3260   -2.9220   -0.8750 O   0  0
   -5.1520   -0.7850   -0.5630 C   0  0
   -6.4840   -1.0590   -0.6910 N   0  0
   -4.9790    0.5820   -0.3180 C   0  0
   -7.1520    0.1170   -0.5330 C   0  0
   -7.0920   -2.3730   -0.9550 C   0  0
   -6.2460    1.1520   -0.3010 C   0  0
   -6.5680    2.5680   -0.0780 N   0  0
   -5.5660    3.4710    0.1390 C   0  0
   -4.4120    3.1110    0.1500 O   0  0
   -5.8970    4.8730    0.3570 C   0  0
   -4.9960    5.8750    0.5860 N   0  0
   -7.1930    5.4000    0.3650 C   0  0
   -5.7050    7.0250    0.7360 C   0  0
   -3.5310    5.7440    0.6540 C   0  0
   -7.0700    6.7640    0.6070 C   0  0
   -8.1660    7.7400    0.7050 N   0  0
   -9.4610    7.3320    0.5530 C   0  0
   -9.7130    6.1680    0.3400 O   0  0
  -10.5390    8.3070    0.6520 C   0  0
  -10.3600    9.6350    0.8910 N   0  0
  -11.8690    8.0250    0.5210 N   0  0
  -11.5860   10.1950    0.9080 C   0  0
  -12.5240    9.1970    0.6800 C   0  0
  -12.4790    6.7130    0.2580 C   0  0
    7.1130   -1.0860   -1.9550 H   0  0
    6.7970   -3.2190    1.3320 H   0  0
    9.2540   -0.7090   -1.5570 H   0  0
    9.9690   -1.7660    1.6840 H   0  0
    8.2440   -2.0880    1.8400 H   0  0
    8.7970   -0.6410    1.0000 H   0  0
    7.1680    0.2400   -0.4690 H   0  0
    5.1700   -2.4340   -2.2970 H   0  0
    4.6350   -0.9650   -1.5230 H   0  0
    5.4510   -4.4920   -1.0700 H   0  0
    7.6100   -5.6210   -0.3730 H   0  0
    7.1100   -5.6700    1.2950 H   0  0
   11.5370   -4.9010    0.0060 H   0  0
    9.6000   -5.7460    1.0000 H   0  0
    9.0510   -4.4610    2.0430 H   0  0
   11.4810   -1.1450   -2.2560 H   0  0
    4.6500   -5.9240    0.5450 H   0  0
    4.8420   -4.7760    1.8340 H   0  0
    5.5290   -1.8610    1.5430 H   0  0
    3.8870   -2.4400    1.8140 H   0  0
    4.1580   -0.9320    0.9430 H   0  0
    2.8050   -3.9080    1.5630 H   0  0
    2.1580   -4.2560   -1.8220 H   0  0
    2.2730   -6.3320    1.0760 H   0  0
    1.0740   -5.1600    0.4920 H   0  0
    2.2110   -5.9020   -0.6310 H   0  0
    0.5530   -3.6250   -0.6890 H   0  0
   -0.1740   -0.8910   -1.1520 H   0  0
   -0.2810   -1.1840    0.5610 H   0  0
   -1.8550   -3.1210    0.1310 H   0  0
   -1.7480   -2.8300   -1.5820 H   0  0
   -2.5740   -0.3890   -0.3320 H   0  0
   -4.0350    1.0940   -0.1700 H   0  0
   -8.2310    0.1950   -0.5880 H   0  0
   -6.3750   -3.1900   -1.0490 H   0  0
   -7.6700   -2.3280   -1.8790 H   0  0
   -7.7790   -2.6250   -0.1460 H   0  0
   -7.5240    2.8690   -0.0860 H   0  0
   -8.1130    4.8500    0.2150 H   0  0
   -5.2420    7.9840    0.9300 H   0  0
   -3.1640    4.7290    0.5040 H   0  0
   -3.1820    6.0840    1.6290 H   0  0
   -3.0740    6.3790   -0.1040 H   0  0
   -7.9610    8.7030    0.8830 H   0  0
  -11.7660   11.2500    1.0780 H   0  0
  -13.6020    9.2990    0.6290 H   0  0
  -11.7620    5.8970    0.1640 H   0  0
  -13.0570    6.7580   -0.6660 H   0  0
  -13.1640    6.4630    1.0680 H   0  0
  2  1  1  0
  2  3  1  0
  2  4  1  0
  2  5  1  0
  3  6  1  0
  3  7  1  0
  3  8  1  0
  4  9  1  0
  4 10  1  0
  5 11  1  0
  5 12  1  0
  6 13  2  0
  6 14  1  0
  7 15  2  0
 10 16  1  0
 11 17  1  0
 13 18  1  0
 16 19  1  0
 16 20  1  0
 17 21  1  0
 18 22  2  0
 19 23  1  0
 19 24  1  0
 21 25  1  0
 24 26  2  0
 24 27  1  0
 27 28  1  0
 28 29  1  0
 29 30  1  0
 30 31  1  0
 31 32  2  0
 31 33  1  0
 33 34  1  0
 33 35  2  0
 34 36  1  0
 34 37  1  0
 35 38  1  0
 38 39  1  0
 39 40  1  0
 40 41  2  0
 40 42  1  0
 42 43  1  0
 42 44  2  0
 43 45  1  0
 43 46  1  0
 44 47  1  0
 47 48  1  0
 48 49  1  0
 49 50  2  0
 49 51  1  0
 51 52  2  0
 51 53  1  0
 52 54  1  0
 53 55  1  0
 53 56  1  0
 11 16  1  0
 12 14  1  0
 15 18  1  0
 19 21  1  0
 36 38  2  0
 45 47  2  0
 54 55  2  0
  4 57  1  0
  5 58  1  0
  7 59  1  0
  8 60  1  0
  8 61  1  0
  8 62  1  0
  9 63  1  0
 10 64  1  0
 10 65  1  0
 11 66  1  0
 12 67  1  0
 12 68  1  0
 13 69  1  0
 14 70  1  0
 14 71  1  0
 15 72  1  0
 17 73  1  0
 17 74  1  0
 20 75  1  0
 20 76  1  0
 20 77  1  0
 21 78  1  0
 23 79  1  0
 25 80  1  0
 25 81  1  0
 25 82  1  0
 27 83  1  0
 28 84  1  0
 28 85  1  0
 29 86  1  0
 29 87  1  0
 30 88  1  0
 35 89  1  0
 36 90  1  0
 37 91  1  0
 37 92  1  0
 37 93  1  0
 39 94  1  0
 44 95  1  0
 45 96  1  0
 46 97  1  0
 46 98  1  0
 46 99  1  0
 48100  1  0
 54101  1  0
 55102  1  0
 56103  1  0
 56104  1  0
 56105  1  0
M  END
> <Name>
CHEMBL557958

> <IC50 nM>
480

> <Molecule_ChEMBL_ID>
CHEMBL557958

> <Smiles>
C[C@H]1C[C@@H]2[C@H]3CCC4=CC(=O)C=C[C@@]4(C)[C@]3(F)[C@H](O)C[C@@]2(C)[C@]1(O)C(=O)NCCNC(=O)c1cc(NC(=O)c2cc(NC(=O)c3nccn3C)cn2C)cn1C

$$$$
CHEMBL310420
  SciTegic08162514323D

 57 61  0  0  1  0            999 V2000
   -4.9570    7.4870   -0.0820 F   0  0
   -4.5610    6.2170   -0.0450 C   0  0
   -5.1460    5.3220    0.8650 C   0  0
   -3.5550    5.7700   -0.9200 C   0  0
   -4.7290    3.9810    0.9040 C   0  0
   -3.1350    4.4280   -0.8830 C   0  0
   -3.7210    3.5310    0.0290 C   0  0
   -3.3160    2.2340    0.0660 N   0  0
   -4.1540    1.1640    0.1250 N   0  0
   -2.0270    1.8050    0.0470 C   0  0
   -3.4960   -0.0250    0.1600 C   0  0
   -2.1820    0.4320    0.1230 C   0  0
   -0.7360    2.5080   -0.0330 C   0  0
   -0.9340   -0.4340    0.1860 C   0  0
    0.3950    1.7850   -0.2150 C   0  0
    0.3570    0.2560   -0.3850 C   0  0  1  0  0  0
    1.7290    2.5040   -0.2930 C   0  0
    1.5940   -0.4180    0.2720 C   0  0  1  0  0  0
    0.3970    0.0270   -1.9040 C   0  0
    2.8770    1.7460    0.3790 C   0  0
    1.6840   -1.9140   -0.0610 C   0  0  1  0  0  0
    2.9160    0.2870   -0.0700 C   0  0
    2.3280   -2.0510   -1.3070 O   0  0
    2.4770   -2.7030    0.9810 C   0  0
    2.3690   -4.1700    0.7540 C   0  0
    3.3990   -4.8550    0.0880 C   0  0
    1.2340   -4.8690    1.2030 C   0  0
    3.2970   -6.2420   -0.1270 C   0  0
    1.1330   -6.2560    0.9900 C   0  0
    2.1640   -6.9410    0.3240 C   0  0
   -5.9200    5.6620    1.5390 H   0  0
   -3.1020    6.4530   -1.6210 H   0  0
   -5.1910    3.3090    1.6130 H   0  0
   -2.3590    4.1040   -1.5620 H   0  0
   -3.9200   -1.0210    0.2090 H   0  0
   -0.6970    3.5840    0.0430 H   0  0
   -1.1190   -1.3850   -0.3200 H   0  0
   -0.7890   -0.6800    1.2380 H   0  0
    1.9710    2.6560   -1.3460 H   0  0
    1.6520    3.5000    0.1470 H   0  0
    1.4770   -0.3460    1.3540 H   0  0
   -0.3940    0.5920   -2.3980 H   0  0
    1.3610    0.3340   -2.3130 H   0  0
    0.2540   -1.0250   -2.1410 H   0  0
    2.7580    1.7910    1.4630 H   0  0
    3.8240    2.2340    0.1520 H   0  0
    0.6720   -2.3110   -0.1580 H   0  0
    3.1080    0.2320   -1.1430 H   0  0
    3.7460   -0.2210    0.4220 H   0  0
    2.1580   -2.9530   -1.6190 H   0  0
    2.1350   -2.4670    1.9860 H   0  0
    3.5260   -2.4100    0.9690 H   0  0
    4.2720   -4.3240   -0.2620 H   0  0
    0.4400   -4.3480    1.7170 H   0  0
    4.0880   -6.7700   -0.6390 H   0  0
    0.2640   -6.7930    1.3360 H   0  0
    2.0860   -8.0060    0.1600 H   0  0
  1  2  1  0
  2  3  2  0
  2  4  1  0
  3  5  1  0
  4  6  2  0
  5  7  2  0
  7  8  1  0
  8  9  1  0
  8 10  1  0
  9 11  2  0
 10 12  2  0
 10 13  1  0
 12 14  1  0
 13 15  2  0
 14 16  1  0
 15 17  1  0
 16 18  1  0
 16 19  1  0
 17 20  1  0
 18 21  1  0
 18 22  1  0
 21 23  1  0
 21 24  1  0
 24 25  1  0
 25 26  2  0
 25 27  1  0
 26 28  1  0
 27 29  2  0
 28 30  2  0
  6  7  1  0
 11 12  1  0
 15 16  1  0
 20 22  1  0
 29 30  1  0
  3 31  1  0
  4 32  1  0
  5 33  1  0
  6 34  1  0
 11 35  1  0
 13 36  1  0
 14 37  1  0
 14 38  1  0
 17 39  1  0
 17 40  1  0
 18 41  1  0
 19 42  1  0
 19 43  1  0
 19 44  1  0
 20 45  1  0
 20 46  1  0
 21 47  1  0
 22 48  1  0
 22 49  1  0
 23 50  1  0
 24 51  1  0
 24 52  1  0
 26 53  1  0
 27 54  1  0
 28 55  1  0
 29 56  1  0
 30 57  1  0
M  END
> <Name>
CHEMBL310420

> <IC50 nM>
4.2

> <Molecule_ChEMBL_ID>
CHEMBL310420

> <Smiles>
C[C@]12Cc3cnn(-c4ccc(F)cc4)c3C=C1CCC[C@@H]2[C@@H](O)Cc1ccccc1

$$$$
CHEMBL5400213
  SciTegic08162514323D

 71 76  0  0  1  0            999 V2000
  -11.0040   -0.4770   -1.3030 F   0  0
   -9.7620   -0.1460   -0.9550 C   0  0
   -9.3300   -0.3260    0.3710 C   0  0
   -8.8810    0.3850   -1.9140 C   0  0
   -8.0200    0.0230    0.7380 C   0  0
   -7.5700    0.7340   -1.5470 C   0  0
   -7.1370    0.5550   -0.2210 C   0  0
   -5.7440    0.9260    0.1680 C   0  0
   -5.4840    1.2680    1.2990 O   0  0
   -4.7620    0.8730   -0.7790 N   0  0
   -3.3790    1.2380   -0.4100 C   0  0  2  0  0  0
   -2.5550    1.5840   -1.6740 C   0  0
   -2.7090    0.1310    0.4450 C   0  0
   -1.0800    1.4160   -1.3870 C   0  0
   -1.8030   -0.7730   -0.4060 C   0  0
   -0.2500    2.4830   -1.4000 C   0  0
   -0.6150    0.0000   -1.0510 C   0  0  2  0  0  0
    1.1990    2.3970   -0.9830 C   0  0
    0.6370    0.0610   -0.1290 C   0  0  3  0  0  0
   -0.2500   -0.6840   -2.3770 C   0  0
    1.7130    0.9610   -0.7930 C   0  0  3  0  0  0
    1.1990   -1.3320    0.2660 C   0  0
    2.9550    0.9490    0.1030 C   0  0  3  0  0  0
    2.5310   -1.2730    1.0470 C   0  0
    3.5530   -0.4670    0.2340 C   0  0  2  0  0  0
    4.1990    1.7770   -0.2500 C   0  0
    4.8890   -0.1600    0.8610 C   0  0
    3.8200   -1.1130   -1.1310 C   0  0
    5.2660    1.0920    0.5640 C   0  0
    5.6190   -1.0960    1.6440 N   0  0
    5.5140   -2.4340    1.5190 C   0  0
    6.4940   -0.7560    2.6000 C   0  0
    6.3570   -3.0000    2.4320 N   0  0
    6.9630   -1.9730    3.0980 C   0  0
    7.9770   -2.1990    4.1990 C   0  0
  -10.0040   -0.7340    1.1110 H   0  0
   -9.2090    0.5250   -2.9340 H   0  0
   -7.6950   -0.1190    1.7580 H   0  0
   -6.9010    1.1430   -2.2910 H   0  0
   -4.9790    0.5920   -1.7150 H   0  0
   -3.4470    2.1310    0.2110 H   0  0
   -2.8090    0.9200   -2.5040 H   0  0
   -2.7810    2.5960   -2.0140 H   0  0
   -2.0940    0.6000    1.2150 H   0  0
   -3.4430   -0.4670    0.9860 H   0  0
   -1.4650   -1.6230    0.1820 H   0  0
   -2.4260   -1.2110   -1.1900 H   0  0
   -0.6330    3.4420   -1.7150 H   0  0
    1.2990    2.9470   -0.0450 H   0  0
    1.8200    2.9220   -1.7090 H   0  0
    0.3380    0.5450    0.8050 H   0  0
   -1.1130   -0.7830   -3.0350 H   0  0
    0.1480   -1.6840   -2.1990 H   0  0
    0.5120   -0.1130   -2.9080 H   0  0
    1.9690    0.5610   -1.7760 H   0  0
    1.3380   -1.9370   -0.6290 H   0  0
    0.4840   -1.8710    0.8830 H   0  0
    2.6430    1.2890    1.0840 H   0  0
    2.3710   -0.8180    2.0250 H   0  0
    2.9000   -2.2830    1.2280 H   0  0
    4.4360    1.7170   -1.3030 H   0  0
    4.0920    2.8150    0.0270 H   0  0
    4.5080   -0.5210   -1.7330 H   0  0
    2.8930   -1.2210   -1.6930 H   0  0
    4.2540   -2.1050   -1.0100 H   0  0
    6.1900    1.5660    0.8590 H   0  0
    4.8770   -2.9690    0.8240 H   0  0
    6.7600    0.2520    2.8940 H   0  0
    8.2640   -3.2520    4.2170 H   0  0
    8.8280   -1.5330    4.0530 H   0  0
    7.5270   -1.9610    5.1620 H   0  0
  1  2  1  0
  2  3  2  0
  2  4  1  0
  3  5  1  0
  4  6  2  0
  5  7  2  0
  7  8  1  0
  8  9  2  0
  8 10  1  0
 11 10  1  0
 11 12  1  0
 11 13  1  0
 12 14  1  0
 13 15  1  0
 14 16  2  0
 14 17  1  0
 16 18  1  0
 17 19  1  0
 17 20  1  0
 18 21  1  0
 19 22  1  0
 21 23  1  0
 22 24  1  0
 23 25  1  0
 23 26  1  0
 25 27  1  0
 25 28  1  0
 26 29  1  0
 27 30  1  0
 30 31  1  0
 30 32  1  0
 31 33  2  0
 32 34  2  0
 34 35  1  0
  6  7  1  0
 15 17  1  0
 19 21  1  0
 24 25  1  0
 27 29  2  0
 33 34  1  0
  3 36  1  0
  4 37  1  0
  5 38  1  0
  6 39  1  0
 10 40  1  0
 11 41  1  0
 12 42  1  0
 12 43  1  0
 13 44  1  0
 13 45  1  0
 15 46  1  0
 15 47  1  0
 16 48  1  0
 18 49  1  0
 18 50  1  0
 19 51  1  0
 20 52  1  0
 20 53  1  0
 20 54  1  0
 21 55  1  0
 22 56  1  0
 22 57  1  0
 23 58  1  0
 24 59  1  0
 24 60  1  0
 26 61  1  0
 26 62  1  0
 28 63  1  0
 28 64  1  0
 28 65  1  0
 29 66  1  0
 31 67  1  0
 32 68  1  0
 35 69  1  0
 35 70  1  0
 35 71  1  0
M  END
> <Name>
CHEMBL5400213

> <IC50 nM>
30000

> <Molecule_ChEMBL_ID>
CHEMBL5400213

> <Smiles>
Cc1cn(C2=CCC3C4CC=C5C[C@@H](NC(=O)c6ccc(F)cc6)CC[C@]5(C)C4CC[C@]23C)cn1

$$$$
CHEMBL228610
  SciTegic08162514323D

 53 55  0  0  1  0            999 V2000
   -0.6970   -2.1720   -0.4510 O   0  0
   -1.5270   -1.8120    0.6290 C   0  0  2  0  0  0
   -1.3380   -2.0680   -1.7030 C   0  0
   -1.8340   -0.3360    0.5590 C   0  0
   -0.8160   -2.1990    1.9280 C   0  0
   -0.4340   -2.6090   -2.7770 C   0  0
   -0.7480    0.6880    0.6090 C   0  0
   -3.1170    0.0570    0.4490 C   0  0
   -0.9380   -2.7930   -4.0080 C   0  0
   -1.0800    2.0700    0.5390 C   0  0
    0.6090    0.2870    0.7290 C   0  0
   -3.5200    1.5200    0.3710 C   0  0
   -2.3710    2.4730    0.4260 N   0  0
   -0.0390    3.0350    0.5900 C   0  0
    1.6410    1.2560    0.7770 C   0  0
   -4.2720    1.7380   -0.9430 C   0  0
   -4.4530    1.8180    1.5470 C   0  0
    1.3090    2.6290    0.7070 C   0  0
    3.0330    0.8400    0.9010 C   0  0
    3.5740   -0.1250    0.0240 C   0  0
    3.8400    1.4100    1.9020 C   0  0
    2.8400   -0.6740   -0.9260 O   0  0
    4.9200   -0.5100    0.1600 C   0  0
    5.1840    1.0220    2.0310 C   0  0
    3.4820   -1.5310   -1.8550 C   0  0
    5.7250    0.0610    1.1600 C   0  0
   -2.4670   -2.3530    0.5290 H   0  0
   -1.5510   -1.0160   -1.8910 H   0  0
   -2.2560   -2.6560   -1.6620 H   0  0
   -1.3790   -2.9410    2.4920 H   0  0
   -0.6800   -1.3260    2.5670 H   0  0
    0.1700   -2.6150    1.7170 H   0  0
    0.6070   -2.8710   -2.6600 H   0  0
   -3.8950   -0.6930    0.4120 H   0  0
   -0.4160   -3.1700   -4.8750 H   0  0
   -1.9790   -2.5290   -4.1250 H   0  0
    0.8590   -0.7640    0.7810 H   0  0
   -2.5880    3.4510    0.3730 H   0  0
   -0.2620    4.0920    0.5370 H   0  0
   -3.6430    1.5370   -1.8100 H   0  0
   -4.6230    2.7680   -1.0190 H   0  0
   -5.1430    1.0840   -1.0020 H   0  0
   -3.9570    1.6760    2.5080 H   0  0
   -5.3260    1.1660    1.5240 H   0  0
   -4.8070    2.8500    1.5060 H   0  0
    2.0820    3.3850    0.7440 H   0  0
    3.4410    2.1510    2.5820 H   0  0
    5.3420   -1.2460   -0.5080 H   0  0
    5.8010    1.4610    2.8030 H   0  0
    2.7320   -1.9000   -2.5550 H   0  0
    4.3240   -0.9900   -2.2930 H   0  0
    3.8830   -2.3870   -1.3120 H   0  0
    6.7580   -0.2380    1.2600 H   0  0
  1  2  1  0
  1  3  1  0
  2  4  1  0
  2  5  1  0
  3  6  1  0
  4  7  1  0
  4  8  2  0
  6  9  2  0
  7 10  2  0
  7 11  1  0
  8 12  1  0
 10 13  1  0
 10 14  1  0
 11 15  2  0
 12 16  1  0
 12 17  1  0
 14 18  2  0
 15 19  1  0
 19 20  2  0
 19 21  1  0
 20 22  1  0
 20 23  1  0
 21 24  2  0
 22 25  1  0
 23 26  2  0
 12 13  1  0
 15 18  1  0
 24 26  1  0
  2 27  1  0
  3 28  1  0
  3 29  1  0
  5 30  1  0
  5 31  1  0
  5 32  1  0
  6 33  1  0
  8 34  1  0
  9 35  1  0
  9 36  1  0
 11 37  1  0
 13 38  1  0
 14 39  1  0
 16 40  1  0
 16 41  1  0
 16 42  1  0
 17 43  1  0
 17 44  1  0
 17 45  1  0
 18 46  1  0
 21 47  1  0
 23 48  1  0
 24 49  1  0
 25 50  1  0
 25 51  1  0
 25 52  1  0
 26 53  1  0
M  END
> <Name>
CHEMBL228610

> <IC50 nM>
116

> <Molecule_ChEMBL_ID>
CHEMBL228610

> <Smiles>
C=CCOC(C)C1=CC(C)(C)Nc2ccc(-c3ccccc3OC)cc21

$$$$
CHEMBL1094797
  SciTegic08162514323D

 50 52  0  0  1  0            999 V2000
    1.4240    0.8750   -1.9840 O   0  0
    0.7130   -0.0250   -1.6040 C   0  0
   -0.0760   -0.7360   -2.4020 O   0  0
    0.6840   -0.3980   -0.1780 C   0  0
    0.0100   -0.3180   -3.7580 C   0  0
    1.6250   -1.2210    0.3460 C   0  0
   -0.4360    0.1680    0.6860 C   0  0  1  0  0  0
   -0.9280   -1.1700   -4.6130 C   0  0
    1.6020   -1.6110    1.6600 N   0  0
    2.7460   -1.7380   -0.5310 C   0  0
   -0.3950   -0.3670    2.1170 C   0  0
   -0.4040    1.6500    0.6720 C   0  0
    0.6040   -1.1890    2.5140 C   0  0
    2.3890   -3.0590   -1.2170 C   0  0
   -1.4390    0.0250    3.0390 C   0  0
   -1.5980    2.4320    0.6740 C   0  0
    0.8540    2.3090    0.6580 C   0  0
    0.6700   -1.7030    3.9380 C   0  0
    2.2730   -4.2230   -0.2320 C   0  0
   -2.2770    0.3420    3.7790 N   0  0
   -1.4940    3.8630    0.6600 C   0  0
   -2.8790    1.8160    0.6870 C   0  0
    0.8980    3.7230    0.6460 C   0  0
   -0.2560    4.4770    0.6460 N   0  0
   -2.6760    4.6450    0.6600 C   0  0
   -4.0470    2.6130    0.6870 C   0  0
   -3.9450    4.0230    0.6740 C   0  0
    1.0430   -0.4340   -4.0860 H   0  0
   -0.2710    0.7340   -3.8090 H   0  0
   -1.3870   -0.1540    0.2380 H   0  0
   -0.8950   -0.8810   -5.6640 H   0  0
   -1.9590   -1.0680   -4.2740 H   0  0
   -0.6580   -2.2250   -4.5490 H   0  0
    2.3200   -2.2210    2.0000 H   0  0
    2.9470   -1.0270   -1.3320 H   0  0
    3.6560   -1.8440    0.0590 H   0  0
    1.4730   -2.9530   -1.7970 H   0  0
    3.1040   -3.2890   -2.0040 H   0  0
    1.7720    1.7400    0.6580 H   0  0
   -0.3010   -1.9980    4.3400 H   0  0
    1.0800   -0.9340    4.5920 H   0  0
    1.3280   -2.5700    3.9900 H   0  0
    2.1130   -5.1600   -0.7620 H   0  0
    3.1780   -4.3070    0.3730 H   0  0
    1.4340   -4.0720    0.4450 H   0  0
   -2.9880    0.7420    0.6990 H   0  0
    1.8550    4.2230    0.6370 H   0  0
   -2.6250    5.7250    0.6500 H   0  0
   -5.0200    2.1450    0.6970 H   0  0
   -4.8400    4.6270    0.6740 H   0  0
  1  2  2  0
  2  3  1  0
  2  4  1  0
  3  5  1  0
  4  6  2  0
  4  7  1  0
  5  8  1  0
  6  9  1  0
  6 10  1  0
  7 11  1  0
  7 12  1  0
  9 13  1  0
 10 14  1  0
 11 15  1  0
 12 16  2  0
 12 17  1  0
 13 18  1  0
 14 19  1  0
 15 20  3  0
 16 21  1  0
 16 22  1  0
 17 23  2  0
 21 24  2  0
 21 25  1  0
 22 26  2  0
 25 27  2  0
 11 13  2  0
 23 24  1  0
 26 27  1  0
  5 28  1  0
  5 29  1  0
  7 30  1  0
  8 31  1  0
  8 32  1  0
  8 33  1  0
  9 34  1  0
 10 35  1  0
 10 36  1  0
 14 37  1  0
 14 38  1  0
 17 39  1  0
 18 40  1  0
 18 41  1  0
 18 42  1  0
 19 43  1  0
 19 44  1  0
 19 45  1  0
 22 46  1  0
 23 47  1  0
 25 48  1  0
 26 49  1  0
 27 50  1  0
M  END
> <Name>
CHEMBL1094797

> <IC50 nM>
270

> <Molecule_ChEMBL_ID>
CHEMBL1094797

> <Smiles>
CCCC1=C(C(=O)OCC)[C@H](c2ccnc3ccccc23)C(C#N)=C(C)N1

$$$$
CHEMBL455662
  SciTegic08162514323D

 58 60  0  0  1  0            999 V2000
   -1.7770   -4.0270    4.0430 Cl  0  0
   -0.2050   -4.6430    3.7150 C   0  0
    0.9240   -3.7930    3.6430 C   0  0
   -0.0550   -6.0280    3.5160 C   0  0
    2.1970   -4.3440    3.3690 C   0  0
    0.7710   -2.3170    3.8540 C   0  0
    1.2110   -6.5700    3.2420 C   0  0
    3.6060   -3.3590    3.2700 Cl  0  0
    2.3340   -5.7310    3.1700 C   0  0
    0.6110   -1.8590    4.9630 O   0  0
    0.8140   -1.4880    2.7680 N   0  0
    0.7110   -0.0350    2.9630 C   0  0
    0.9650   -2.0160    1.4040 C   0  0
   -0.7480    0.4220    2.9100 C   0  0  1  0  0  0
   -0.2010   -2.9360    1.0410 C   0  0
   -1.4900   -0.3690    3.8110 O   0  0
   -0.7710    1.8650    3.4100 C   0  0
   -1.3650    0.2680    1.5190 C   0  0
   -0.6230    1.8810    4.7730 F   0  0
   -1.9670    2.4450    3.0740 F   0  0
    0.2540    2.5660    2.8300 F   0  0
   -0.6130    1.0430    0.5210 N   0  0
   -1.1930    1.3300   -0.6820 C   0  0
   -2.3140    0.9510   -0.9240 O   0  0
   -0.4510    2.1000   -1.6720 C   0  0
   -0.8670    2.3960   -2.9940 C   0  0
    0.8200    2.6820   -1.4830 C   0  0
    0.1370    3.1270   -3.5410 N   0  0
   -2.1390    1.9800   -3.6150 N   0  0
    1.1150    3.2850   -2.6470 N   0  0
    0.1680    3.6330   -4.8010 C   0  0
    0.4690    4.9940   -5.0100 C   0  0
   -0.0980    2.7990   -5.9040 C   0  0
    0.5000    5.5160   -6.3150 C   0  0
   -0.0640    3.3240   -7.2090 C   0  0
    0.2340    4.6820   -7.4140 C   0  0
    0.2660    5.1780   -8.6490 F   0  0
   -0.9060   -6.6900    3.5700 H   0  0
    1.3200   -7.6330    3.0900 H   0  0
    3.2990   -6.1660    2.9590 H   0  0
    1.3010    0.4730    2.1990 H   0  0
    1.1620    0.2320    3.9180 H   0  0
    1.0310   -1.1840    0.7030 H   0  0
    1.9140   -2.5470    1.3260 H   0  0
   -0.4690   -2.8240   -0.0100 H   0  0
    0.0570   -3.9790    1.2320 H   0  0
   -1.0820   -2.6950    1.6370 H   0  0
   -2.4200   -0.1090    3.7210 H   0  0
   -2.4040    0.5980    1.5190 H   0  0
   -1.3830   -0.7790    1.2190 H   0  0
    0.3160    1.3590    0.7210 H   0  0
    1.4550    2.6700   -0.6060 H   0  0
   -2.8140    1.4320   -3.1250 H   0  0
   -2.3460    2.2500   -4.5570 H   0  0
    0.6760    5.6500   -4.1780 H   0  0
   -0.3300    1.7520   -5.7680 H   0  0
    0.7300    6.5610   -6.4690 H   0  0
   -0.2710    2.6800   -8.0510 H   0  0
  1  2  1  0
  2  3  2  0
  2  4  1  0
  3  5  1  0
  3  6  1  0
  4  7  2  0
  5  8  1  0
  5  9  2  0
  6 10  2  0
  6 11  1  0
 11 12  1  0
 11 13  1  0
 12 14  1  0
 13 15  1  0
 14 16  1  0
 14 17  1  0
 14 18  1  0
 17 19  1  0
 17 20  1  0
 17 21  1  0
 18 22  1  0
 22 23  1  0
 23 24  2  0
 23 25  1  0
 25 26  2  0
 25 27  1  0
 26 28  1  0
 26 29  1  0
 27 30  2  0
 28 31  1  0
 31 32  2  0
 31 33  1  0
 32 34  1  0
 33 35  2  0
 34 36  2  0
 36 37  1  0
  7  9  1  0
 28 30  1  0
 35 36  1  0
  4 38  1  0
  7 39  1  0
  9 40  1  0
 12 41  1  0
 12 42  1  0
 13 43  1  0
 13 44  1  0
 15 45  1  0
 15 46  1  0
 15 47  1  0
 16 48  1  0
 18 49  1  0
 18 50  1  0
 22 51  1  0
 27 52  1  0
 29 53  1  0
 29 54  1  0
 32 55  1  0
 33 56  1  0
 34 57  1  0
 35 58  1  0
M  END
> <Name>
CHEMBL455662

> <IC50 nM>
3.16

> <Molecule_ChEMBL_ID>
CHEMBL455662

> <Smiles>
CCN(C[C@](O)(CNC(=O)c1cnn(-c2ccc(F)cc2)c1N)C(F)(F)F)C(=O)c1c(Cl)cccc1Cl

$$$$
CHEMBL1084014
  SciTegic08162514323D

 56 60  0  0  0  0            999 V2000
   -3.9690   -2.4850   -0.9770 S   0  0
   -4.1000   -1.0960   -1.3850 O   0  0
   -3.4710   -3.3480   -2.0330 O   0  0
   -2.9010   -2.5370    0.2400 N   0  0
   -5.5260   -3.0570   -0.4980 C   0  0
   -1.7340   -1.8240    0.1580 C   0  0
   -6.4280   -2.1840    0.1370 C   0  0
   -5.8870   -4.3930   -0.7400 C   0  0
   -0.9510   -1.6170    1.3090 C   0  0
   -1.3160   -1.2950   -1.0760 C   0  0
   -7.6950   -2.6490    0.5270 C   0  0
   -7.1560   -4.8560   -0.3480 C   0  0
    0.2460   -0.8830    1.2300 C   0  0
   -0.1210   -0.5630   -1.1600 C   0  0
   -8.0590   -3.9850    0.2850 C   0  0
   -8.6510   -1.7290    1.1970 C   0  0
    0.6640   -0.3540   -0.0120 C   0  0
    1.0530   -0.6820    2.4670 C   0  0
   -9.8010   -2.4080    1.5060 F   0  0
   -8.9470   -0.6880    0.3570 F   0  0
   -8.0860   -1.2400    2.3480 F   0  0
    1.9000    0.4080   -0.1210 C   0  0
    1.3850    0.6420    2.5860 F   0  0
    2.1950   -1.4380    2.3960 F   0  0
    0.3160   -1.0680    3.5590 F   0  0
    3.1540   -0.2640   -0.1520 C   0  0
    1.8590    1.8280   -0.2010 C   0  0
    4.3520    0.4900   -0.2600 C   0  0
    3.0570    2.5780   -0.3070 C   0  0
    4.2770    1.8690   -0.3340 C   0  0
    5.6040   -0.0980   -0.2950 C   0  0
    5.5860    2.2230   -0.4240 N   0  0
    6.3340    1.0660   -0.4000 N   0  0
    6.0840    3.4820   -0.5220 C   0  0
    7.1330    3.7620   -1.4180 C   0  0
    5.5510    4.5160    0.2750 C   0  0
    7.6470    5.0640   -1.5180 C   0  0
    6.0660    5.8200    0.1740 C   0  0
    7.1150    6.0960   -0.7230 C   0  0
    7.6020    7.3300   -0.8180 F   0  0
   -3.0920   -3.0920    1.0490 H   0  0
   -6.1430   -1.1580    0.3200 H   0  0
   -5.1950   -5.0630   -1.2270 H   0  0
   -1.2640   -2.0180    2.2640 H   0  0
   -1.9060   -1.4450   -1.9730 H   0  0
   -7.4360   -5.8830   -0.5350 H   0  0
    0.1840   -0.1640   -2.1190 H   0  0
   -9.0310   -4.3480    0.5840 H   0  0
    3.1950   -1.3440   -0.0940 H   0  0
    0.9140    2.3530   -0.1800 H   0  0
    3.0330    3.6560   -0.3670 H   0  0
    5.9550   -1.1210   -0.2580 H   0  0
    7.5550    2.9820   -2.0390 H   0  0
    4.7460    4.3240    0.9690 H   0  0
    8.4510    5.2730   -2.2070 H   0  0
    5.6540    6.6090    0.7850 H   0  0
  1  2  2  0
  1  3  2  0
  1  4  1  0
  1  5  1  0
  4  6  1  0
  5  7  2  0
  5  8  1  0
  6  9  2  0
  6 10  1  0
  7 11  1  0
  8 12  2  0
  9 13  1  0
 10 14  2  0
 11 15  2  0
 11 16  1  0
 13 17  2  0
 13 18  1  0
 16 19  1  0
 16 20  1  0
 16 21  1  0
 17 22  1  0
 18 23  1  0
 18 24  1  0
 18 25  1  0
 22 26  2  0
 22 27  1  0
 26 28  1  0
 27 29  2  0
 28 30  2  0
 28 31  1  0
 30 32  1  0
 31 33  2  0
 32 34  1  0
 34 35  2  0
 34 36  1  0
 35 37  1  0
 36 38  2  0
 37 39  2  0
 39 40  1  0
 12 15  1  0
 14 17  1  0
 29 30  1  0
 32 33  1  0
 38 39  1  0
  4 41  1  0
  7 42  1  0
  8 43  1  0
  9 44  1  0
 10 45  1  0
 12 46  1  0
 14 47  1  0
 15 48  1  0
 26 49  1  0
 27 50  1  0
 29 51  1  0
 31 52  1  0
 35 53  1  0
 36 54  1  0
 37 55  1  0
 38 56  1  0
M  END
> <Name>
CHEMBL1084014

> <IC50 nM>
63.1

> <Molecule_ChEMBL_ID>
CHEMBL1084014

> <Smiles>
O=S(=O)(Nc1ccc(-c2ccc3c(cnn3-c3ccc(F)cc3)c2)c(C(F)(F)F)c1)c1cccc(C(F)(F)F)c1

$$$$
CHEMBL5289208
  SciTegic08162514323D

 58 62  0  0  0  0            999 V2000
    0.7750   -2.8030    1.5680 S   0  0
   -0.1860   -2.5860    2.6350 O   0  0
    0.3530   -3.8140    0.6150 O   0  0
    0.9300   -1.4080    0.7600 N   0  0
    2.2660   -3.3110    2.2730 C   0  0
    2.3570   -1.0040    0.1070 S   0  0
   -0.1210   -0.5880    0.6310 C   0  0
    2.9260   -4.4470    1.7770 C   0  0
    2.8160   -2.5860    3.3440 C   0  0
    3.0390   -0.1350    1.0530 O   0  0
    3.0800   -2.2340   -0.1600 O   0  0
    2.1700   -0.1480   -1.3790 C   0  0
   -1.4380   -1.1050    0.6170 C   0  0
    0.0680    0.8090    0.5040 C   0  0
    4.1390   -4.8610    2.3540 C   0  0
    4.0310   -3.0000    3.9200 C   0  0
    2.9390    1.0020   -1.6290 C   0  0
    1.2500   -0.6020   -2.3380 C   0  0
   -2.5590   -0.2480    0.4780 C   0  0
   -1.0390    1.6740    0.3670 C   0  0
    4.6930   -4.1390    3.4240 C   0  0
    2.7870    1.6990   -2.8400 C   0  0
    1.0980    0.0940   -3.5490 C   0  0
   -2.3730    1.1680    0.3530 C   0  0
   -3.9180   -0.8500    0.4730 C   0  0
    5.8420   -4.5290    3.9690 F   0  0
    1.8670    1.2440   -3.8010 C   0  0
   -3.4510    2.0060    0.2230 N   0  0
   -4.9340    0.0370   -0.2540 C   0  0
    1.7230    1.9040   -4.9490 F   0  0
   -3.3050    3.3650    0.0660 C   0  0
   -4.8480    1.4840    0.2500 C   0  0
   -4.0060    4.1330    0.6800 O   0  0
   -2.2970    3.8710   -0.8540 C   0  0
   -1.8050    5.1230   -0.6350 O   0  0
   -1.7360    3.2440   -1.9690 C   0  0
   -0.9040    5.2910   -1.6470 C   0  0
   -0.8300    4.1720   -2.4840 C   0  0
    2.5020   -5.0040    0.9550 H   0  0
    2.3100   -1.7130    3.7270 H   0  0
   -1.6040   -2.1700    0.7150 H   0  0
    1.0640    1.2320    0.5100 H   0  0
    4.6450   -5.7360    1.9690 H   0  0
    4.4530   -2.4410    4.7420 H   0  0
    3.6460    1.3520   -0.8910 H   0  0
    0.6580   -1.4860   -2.1470 H   0  0
   -0.8340    2.7310    0.2750 H   0  0
    3.3810    2.5820   -3.0290 H   0  0
    0.3890   -0.2580   -4.2850 H   0  0
   -3.9030   -1.8360    0.0060 H   0  0
   -4.2330   -0.9960    1.5080 H   0  0
   -4.7420    0.0120   -1.3280 H   0  0
   -5.9420   -0.3500   -0.1130 H   0  0
   -5.4960    2.1170   -0.3590 H   0  0
   -5.2190    1.5430    1.2730 H   0  0
   -1.9570    2.2560   -2.3520 H   0  0
   -0.3200    6.1930   -1.7750 H   0  0
   -0.1970    4.0490   -3.3540 H   0  0
  1  2  2  0
  1  3  2  0
  1  4  1  0
  1  5  1  0
  4  6  1  0
  4  7  1  0
  5  8  2  0
  5  9  1  0
  6 10  2  0
  6 11  2  0
  6 12  1  0
  7 13  2  0
  7 14  1  0
  8 15  1  0
  9 16  2  0
 12 17  2  0
 12 18  1  0
 13 19  1  0
 14 20  2  0
 15 21  2  0
 17 22  1  0
 18 23  2  0
 19 24  2  0
 19 25  1  0
 21 26  1  0
 22 27  2  0
 24 28  1  0
 25 29  1  0
 27 30  1  0
 28 31  1  0
 28 32  1  0
 31 33  2  0
 31 34  1  0
 34 35  1  0
 34 36  2  0
 35 37  1  0
 36 38  1  0
 16 21  1  0
 20 24  1  0
 23 27  1  0
 29 32  1  0
 37 38  2  0
  8 39  1  0
  9 40  1  0
 13 41  1  0
 14 42  1  0
 15 43  1  0
 16 44  1  0
 17 45  1  0
 18 46  1  0
 20 47  1  0
 22 48  1  0
 23 49  1  0
 25 50  1  0
 25 51  1  0
 29 52  1  0
 29 53  1  0
 32 54  1  0
 32 55  1  0
 36 56  1  0
 37 57  1  0
 38 58  1  0
M  END
> <Name>
CHEMBL5289208

> <IC50 nM>
840

> <Molecule_ChEMBL_ID>
CHEMBL5289208

> <Smiles>
O=C(c1ccco1)N1CCCc2cc(N(S(=O)(=O)c3ccc(F)cc3)S(=O)(=O)c3ccc(F)cc3)ccc21

$$$$
CHEMBL5274768
  SciTegic08162514323D

 50 54  0  0  0  0            999 V2000
    2.7300   -0.1540    0.5900 S   0  0
    2.8930    0.5550   -0.6680 O   0  0
    2.7050    0.7270    1.7440 O   0  0
    1.3090   -0.9260    0.5350 N   0  0
    4.0430   -1.2380    0.7700 C   0  0
    0.1720   -0.2280    0.3960 C   0  0
    4.2850   -2.2290   -0.2050 C   0  0
    4.8910   -1.1500    1.8910 C   0  0
   -1.0760   -0.8930    0.3480 C   0  0
    0.2050    1.1820    0.2990 C   0  0
    5.3690   -3.1330   -0.0680 C   0  0
    5.9650   -2.0570    2.0200 C   0  0
   -2.2850   -0.1640    0.2030 C   0  0
   -0.9920    1.9180    0.1540 C   0  0
    6.2190   -3.0610    1.0470 C   0  0
    5.8320   -4.2580   -0.9590 C   0  0
   -2.2600    1.2660    0.1040 C   0  0
   -3.5660   -0.9140    0.1520 C   0  0
    7.1740   -3.9860    1.0160 O   0  0
    7.0510   -4.8090   -0.1580 C   0  0
   -3.4240    1.9790   -0.0330 N   0  0
   -4.7480   -0.0530    0.6110 C   0  0
   -3.4340    3.3520   -0.1090 C   0  0
   -4.7480    1.2970   -0.1150 C   0  0
   -2.5590    3.9980    0.4180 O   0  0
   -4.5080    4.0140   -0.8340 C   0  0
   -4.9530    5.2110   -0.3590 O   0  0
   -5.1740    3.5920   -1.9860 C   0  0
   -5.9380    5.5550   -1.2440 C   0  0
   -6.1060    4.5980   -2.2520 C   0  0
    1.2770   -1.9240    0.6040 H   0  0
    3.6390   -2.3010   -1.0680 H   0  0
    4.7230   -0.3960    2.6470 H   0  0
   -1.1190   -1.9710    0.4200 H   0  0
    1.1450    1.7150    0.3340 H   0  0
    6.6110   -1.9860    2.8810 H   0  0
   -0.9060    2.9940    0.0840 H   0  0
    6.1230   -3.8790   -1.9280 H   0  0
    5.0550   -4.9980   -1.0800 H   0  0
   -3.7310   -1.2460   -0.8750 H   0  0
   -3.5160   -1.8120    0.7700 H   0  0
    6.8970   -5.8340    0.1500 H   0  0
    7.9690   -4.7540   -0.7250 H   0  0
   -4.6900    0.1090    1.6890 H   0  0
   -5.6880   -0.5760    0.4320 H   0  0
   -4.9980    1.1520   -1.1660 H   0  0
   -5.5270    1.9340    0.3090 H   0  0
   -5.0080    2.6840   -2.5510 H   0  0
   -6.5120    6.4690   -1.1620 H   0  0
   -6.8150    4.6310   -3.0680 H   0  0
  1  2  2  0
  1  3  2  0
  1  4  1  0
  1  5  1  0
  4  6  1  0
  5  7  2  0
  5  8  1  0
  6  9  2  0
  6 10  1  0
  7 11  1  0
  8 12  2  0
  9 13  1  0
 10 14  2  0
 11 15  2  0
 11 16  1  0
 13 17  2  0
 13 18  1  0
 15 19  1  0
 16 20  1  0
 17 21  1  0
 18 22  1  0
 21 23  1  0
 21 24  1  0
 23 25  2  0
 23 26  1  0
 26 27  1  0
 26 28  2  0
 27 29  1  0
 28 30  1  0
 12 15  1  0
 14 17  1  0
 19 20  1  0
 22 24  1  0
 29 30  2  0
  4 31  1  0
  7 32  1  0
  8 33  1  0
  9 34  1  0
 10 35  1  0
 12 36  1  0
 14 37  1  0
 16 38  1  0
 16 39  1  0
 18 40  1  0
 18 41  1  0
 20 42  1  0
 20 43  1  0
 22 44  1  0
 22 45  1  0
 24 46  1  0
 24 47  1  0
 28 48  1  0
 29 49  1  0
 30 50  1  0
M  END
> <Name>
CHEMBL5274768

> <IC50 nM>
5040

> <Molecule_ChEMBL_ID>
CHEMBL5274768

> <Smiles>
O=C(c1ccco1)N1CCCc2cc(NS(=O)(=O)c3ccc4c(c3)CCO4)ccc21

$$$$
CHEMBL5272324
  SciTegic08162514323D

 48 51  0  0  0  0            999 V2000
    7.0650   -4.7440    0.0330 Cl  0  0
    5.4840   -4.0670   -0.0310 C   0  0
    4.7090   -3.9000    1.1390 C   0  0
    4.9610   -3.6740   -1.2770 C   0  0
    3.4220   -3.3420    1.0530 C   0  0
    5.2290   -4.3090    2.4750 C   0  0
    3.6720   -3.1170   -1.3590 C   0  0
    2.9060   -2.9510   -0.1950 C   0  0
    4.2680   -4.0800    3.4260 F   0  0
    6.3480   -3.5760    2.7740 F   0  0
    5.5450   -5.6410    2.4550 F   0  0
    1.3240   -2.2660   -0.2930 S   0  0
    0.5720   -2.6800    0.8770 O   0  0
    0.7210   -2.6900   -1.5430 O   0  0
    1.3650   -0.6470   -0.2990 N   0  0
    0.2290    0.0530   -0.4350 C   0  0
   -1.0210   -0.6110   -0.4860 C   0  0
    0.2620    1.4630   -0.5330 C   0  0
   -2.2290    0.1170   -0.6310 C   0  0
   -0.9360    2.1990   -0.6780 C   0  0
   -2.2030    1.5470   -0.7280 C   0  0
   -3.5120   -0.6330   -0.6820 C   0  0
   -3.3670    2.2600   -0.8670 N   0  0
   -4.6910    0.2270   -0.2210 C   0  0
   -3.3770    3.6330   -0.9430 C   0  0
   -4.6910    1.5780   -0.9470 C   0  0
   -4.0760    4.1930   -1.7540 O   0  0
   -2.5390    4.4080   -0.0410 C   0  0
   -2.1930    5.6700   -0.4180 O   0  0
   -2.0180    4.0370    1.2010 C   0  0
   -1.4260    6.1130    0.6230 C   0  0
   -1.2930    5.1500    1.6310 C   0  0
    5.5390   -3.7950   -2.1820 H   0  0
    2.8240   -3.2090    1.9440 H   0  0
    3.2750   -2.8160   -2.3180 H   0  0
    2.2360   -0.1660   -0.1970 H   0  0
   -1.0620   -1.6900   -0.4120 H   0  0
    1.2010    1.9960   -0.5000 H   0  0
   -0.8500    3.2730   -0.7480 H   0  0
   -3.6740   -0.9650   -1.7070 H   0  0
   -3.4590   -1.5310   -0.0640 H   0  0
   -4.6330    0.3890    0.8580 H   0  0
   -5.6310   -0.2970   -0.4020 H   0  0
   -4.9430    1.4340   -2.0000 H   0  0
   -5.4710    2.2150   -0.5230 H   0  0
   -2.1450    3.0960    1.7190 H   0  0
   -0.9780    7.0980    0.6510 H   0  0
   -0.7400    5.2480    2.5570 H   0  0
  1  2  1  0
  2  3  2  0
  2  4  1  0
  3  5  1  0
  3  6  1  0
  4  7  2  0
  5  8  2  0
  6  9  1  0
  6 10  1  0
  6 11  1  0
  8 12  1  0
 12 13  2  0
 12 14  2  0
 12 15  1  0
 15 16  1  0
 16 17  2  0
 16 18  1  0
 17 19  1  0
 18 20  2  0
 19 21  2  0
 19 22  1  0
 21 23  1  0
 22 24  1  0
 23 25  1  0
 23 26  1  0
 25 27  2  0
 25 28  1  0
 28 29  1  0
 28 30  2  0
 29 31  1  0
 30 32  1  0
  7  8  1  0
 20 21  1  0
 24 26  1  0
 31 32  2  0
  4 33  1  0
  5 34  1  0
  7 35  1  0
 15 36  1  0
 17 37  1  0
 18 38  1  0
 20 39  1  0
 22 40  1  0
 22 41  1  0
 24 42  1  0
 24 43  1  0
 26 44  1  0
 26 45  1  0
 30 46  1  0
 31 47  1  0
 32 48  1  0
M  END
> <Name>
CHEMBL5272324

> <IC50 nM>
4120

> <Molecule_ChEMBL_ID>
CHEMBL5272324

> <Smiles>
O=C(c1ccco1)N1CCCc2cc(NS(=O)(=O)c3ccc(Cl)c(C(F)(F)F)c3)ccc21

$$$$
CHEMBL5281564
  SciTegic08162514323D

 61 65  0  0  0  0            999 V2000
    7.2970   -3.5220    4.3130 Cl  0  0
    6.4240   -3.4280    2.8360 C   0  0
    6.6700   -4.3360    1.7810 C   0  0
    5.4470   -2.4280    2.6800 C   0  0
    5.9340   -4.2330    0.5860 C   0  0
    7.6950   -5.4080    1.9020 C   0  0
    4.7190   -2.3300    1.4820 C   0  0
    4.9590   -3.2330    0.4320 C   0  0
    3.5250   -1.0960    1.3050 S   0  0
    4.2730   -3.1450   -0.6910 O   0  0
    3.7400   -0.4320    0.0310 O   0  0
    3.6250   -0.1990    2.4430 O   0  0
    2.0230   -1.7010    1.2930 N   0  0
    4.6270   -4.0140   -1.7580 C   0  0
    0.9710   -0.8810    1.1620 C   0  0
   -0.3460   -1.4010    1.1500 C   0  0
    1.1600    0.5130    1.0370 C   0  0
   -1.4670   -0.5410    1.0120 C   0  0
    0.0530    1.3790    0.9000 C   0  0
   -1.2810    0.8730    0.8870 C   0  0
   -2.8260   -1.1450    1.0060 C   0  0
   -2.3590    1.7130    0.7560 N   0  0
   -3.8420   -0.2560    0.2790 C   0  0
   -2.2110    3.0700    0.6000 C   0  0
   -3.7560    1.1890    0.7830 C   0  0
   -1.3280    3.6620    1.1740 O   0  0
   -3.2460    3.6050   -0.3130 C   0  0
   -3.3770    3.0720   -1.6150 C   0  0
   -4.0960    4.6480    0.1270 C   0  0
   -4.3710    3.5860   -2.4880 C   0  0
   -5.0860    5.1700   -0.7380 C   0  0
   -5.2290    4.6420   -2.0470 C   0  0
   -4.5140    3.0560   -3.7950 C   0  0
   -6.2190    5.1580   -2.9220 C   0  0
   -5.5060    3.5780   -4.6600 C   0  0
   -6.3540    4.6230   -4.2270 C   0  0
    5.2480   -1.7250    3.4770 H   0  0
    6.1170   -4.9260   -0.2230 H   0  0
    7.7910   -6.0410    1.0210 H   0  0
    7.4510   -6.0490    2.7500 H   0  0
    8.6700   -4.9570    2.0960 H   0  0
    1.8790   -2.6880    1.3830 H   0  0
    3.9490   -3.8260   -2.5900 H   0  0
    5.6900   -3.8890   -1.9630 H   0  0
    4.4710   -5.0410   -1.4260 H   0  0
   -0.5100   -2.4650    1.2480 H   0  0
    2.1560    0.9370    1.0430 H   0  0
    0.2580    2.4350    0.8090 H   0  0
   -2.8110   -2.1290    0.5370 H   0  0
   -3.1410   -1.2910    2.0410 H   0  0
   -3.6500   -0.2830   -0.7950 H   0  0
   -4.8500   -0.6450    0.4200 H   0  0
   -4.4040    1.8220    0.1740 H   0  0
   -4.1270    1.2500    1.8070 H   0  0
   -2.7210    2.2750   -1.9400 H   0  0
   -3.9940    5.0550    1.1230 H   0  0
   -5.7270    5.9670   -0.3890 H   0  0
   -3.8770    2.2580   -4.1470 H   0  0
   -6.8750    5.9570   -2.6090 H   0  0
   -5.6150    3.1740   -5.6560 H   0  0
   -7.1080    5.0170   -4.8930 H   0  0
  1  2  1  0
  2  3  2  0
  2  4  1  0
  3  5  1  0
  3  6  1  0
  4  7  2  0
  5  8  2  0
  7  9  1  0
  8 10  1  0
  9 11  2  0
  9 12  2  0
  9 13  1  0
 10 14  1  0
 13 15  1  0
 15 16  2  0
 15 17  1  0
 16 18  1  0
 17 19  2  0
 18 20  2  0
 18 21  1  0
 20 22  1  0
 21 23  1  0
 22 24  1  0
 22 25  1  0
 24 26  2  0
 24 27  1  0
 27 28  2  0
 27 29  1  0
 28 30  1  0
 29 31  2  0
 30 32  1  0
 30 33  2  0
 32 34  2  0
 33 35  1  0
 34 36  1  0
  7  8  1  0
 19 20  1  0
 23 25  1  0
 31 32  1  0
 35 36  2  0
  4 37  1  0
  5 38  1  0
  6 39  1  0
  6 40  1  0
  6 41  1  0
 13 42  1  0
 14 43  1  0
 14 44  1  0
 14 45  1  0
 16 46  1  0
 17 47  1  0
 19 48  1  0
 21 49  1  0
 21 50  1  0
 23 51  1  0
 23 52  1  0
 25 53  1  0
 25 54  1  0
 28 55  1  0
 29 56  1  0
 31 57  1  0
 33 58  1  0
 34 59  1  0
 35 60  1  0
 36 61  1  0
M  END
> <Name>
CHEMBL5281564

> <IC50 nM>
1950

> <Molecule_ChEMBL_ID>
CHEMBL5281564

> <Smiles>
COc1cc(C)c(Cl)cc1S(=O)(=O)Nc1ccc2c(c1)CCCN2C(=O)c1ccc2ccccc2c1

$$$$
CHEMBL303071
  SciTegic08162514323D

 52 55  0  0  1  0            999 V2000
   -2.4590    4.6600   -0.6990 S   0  0
   -2.1370    4.8220    0.7070 O   0  0
   -1.4960    5.2930   -1.5840 O   0  0
   -2.4450    3.0720   -1.0230 N   0  0
   -4.0740    5.3610   -1.0080 C   0  0
   -1.3160    2.3650   -0.8630 C   0  0
   -1.2950    0.9780   -1.1410 C   0  0
   -0.1330    2.9960   -0.4140 C   0  0
   -0.1050    0.2250   -0.9650 C   0  0
    1.0610    2.2560   -0.2480 C   0  0
    1.0900    0.8570   -0.5120 C   0  0
   -0.1110   -1.2360   -1.2420 C   0  0  1  0  0  0
    2.3090    0.0210   -0.3530 C   0  0
    1.1910   -1.7330   -1.5820 O   0  0
   -0.6390   -2.0160   -0.0330 C   0  0
    2.2950   -1.2720   -0.9590 C   0  0
    3.4840    0.4340    0.3540 C   0  0
   -2.1250   -1.7090    0.2190 C   0  0
   -0.4100   -3.5270   -0.2170 C   0  0
    3.4430   -2.0940   -0.9260 C   0  0
    3.5630    1.5980    1.0100 O   0  0
    4.6210   -0.4080    0.3890 C   0  0
   -2.6910   -2.5240    1.3910 C   0  0
   -0.9770   -4.3420    0.9550 C   0  0
    4.6080   -1.6640   -0.2560 C   0  0
    4.5270    1.7090    2.0470 C   0  0
   -2.4610   -4.0290    1.1950 C   0  0
   -3.2770    2.6190   -1.3400 H   0  0
   -4.1450    6.4320   -0.8070 H   0  0
   -4.8140    4.8570   -0.3870 H   0  0
   -4.3480    5.1990   -2.0510 H   0  0
   -2.1870    0.4760   -1.4880 H   0  0
   -0.1210    4.0550   -0.1930 H   0  0
    1.9260    2.8110    0.0740 H   0  0
   -0.7580   -1.4450   -2.0980 H   0  0
   -0.0760   -1.6950    0.8440 H   0  0
   -2.2580   -0.6450    0.4180 H   0  0
   -2.7010   -1.9300   -0.6820 H   0  0
    0.6540   -3.7330   -0.3240 H   0  0
   -0.8850   -3.8560   -1.1420 H   0  0
    3.4320   -3.0590   -1.4120 H   0  0
    5.5120   -0.0900    0.9100 H   0  0
   -3.7580   -2.3240    1.5000 H   0  0
   -2.2210   -2.2010    2.3200 H   0  0
   -0.4080   -4.1210    1.8610 H   0  0
   -0.8500   -5.4060    0.7620 H   0  0
    5.4830   -2.2950   -0.2320 H   0  0
    4.3340    2.6330    2.5940 H   0  0
    4.5060    0.7890    2.6330 H   0  0
    5.5120    1.7910    1.5900 H   0  0
   -2.8240   -4.5800    2.0630 H   0  0
   -3.0450   -4.3750    0.3420 H   0  0
  1  2  2  0
  1  3  2  0
  1  4  1  0
  1  5  1  0
  4  6  1  0
  6  7  2  0
  6  8  1  0
  7  9  1  0
  8 10  2  0
  9 11  2  0
  9 12  1  0
 11 13  1  0
 12 14  1  0
 12 15  1  0
 13 16  2  0
 13 17  1  0
 15 18  1  0
 15 19  1  0
 16 20  1  0
 17 21  1  0
 17 22  2  0
 18 23  1  0
 19 24  1  0
 20 25  2  0
 21 26  1  0
 23 27  1  0
 10 11  1  0
 14 16  1  0
 22 25  1  0
 24 27  1  0
  4 28  1  0
  5 29  1  0
  5 30  1  0
  5 31  1  0
  7 32  1  0
  8 33  1  0
 10 34  1  0
 12 35  1  0
 15 36  1  0
 18 37  1  0
 18 38  1  0
 19 39  1  0
 19 40  1  0
 20 41  1  0
 22 42  1  0
 23 43  1  0
 23 44  1  0
 24 45  1  0
 24 46  1  0
 25 47  1  0
 26 48  1  0
 26 49  1  0
 26 50  1  0
 27 51  1  0
 27 52  1  0
M  END
> <Name>
CHEMBL303071

> <IC50 nM>
47

> <Molecule_ChEMBL_ID>
CHEMBL303071

> <Smiles>
COc1cccc2c1-c1ccc(NS(C)(=O)=O)cc1C(C1CCCCC1)O2

$$$$
CHEMBL4163069
  SciTegic08162514323D

 76 80  0  0  1  0            999 V2000
   -6.5900   -2.1130    0.3690 O   0  0
   -5.3910   -1.9570    0.3090 C   0  0
   -4.5530   -2.0700    1.5100 C   0  0
   -4.7010   -1.6490   -0.9940 C   0  0
   -3.2770   -1.6290    1.5470 C   0  0
   -3.5270   -0.6680   -0.8280 C   0  0
   -2.6470   -0.9240    0.3910 C   0  0
   -2.4750   -1.8540    2.8070 C   0  0
   -1.3500   -0.5060    0.4390 C   0  0
   -0.9940   -2.0140    2.4750 C   0  0
   -0.6990    0.3070   -0.6840 C   0  0  1  0  0  0
   -0.4790   -0.8160    1.6560 C   0  0  1  0  0  0
   -0.9860    1.7540   -0.5060 C   0  0
    0.8130    0.0410   -0.8810 C   0  0
    0.9790   -1.1170    1.2770 C   0  0  1  0  0  0
   -1.7190    2.1930    0.6110 C   0  0
   -0.5290    2.6840   -1.4550 C   0  0
    1.6020    0.0020    0.4370 C   0  0  1  0  0  0
    1.9770   -1.2790    2.4280 C   0  0
   -1.9920    3.5620    0.7790 C   0  0
   -0.8010    4.0530   -1.2890 C   0  0
    3.0860   -0.4550    0.3940 C   0  0  2  0  0  0
    1.5080    1.3400    1.1910 C   0  0
    3.3420   -0.8590    1.8610 C   0  0
   -1.5350    4.4940   -0.1720 C   0  0
    3.9490    0.6000    0.0040 O   0  0
    3.3240   -1.5900   -0.5160 C   0  0
   -1.8010    5.8280   -0.0080 N   0  0
    3.5160   -2.5100   -1.2460 C   0  0
   -1.2210    6.8130   -0.9340 C   0  0
   -2.6640    6.3010    1.0840 C   0  0
    3.7560   -3.6350   -2.1450 C   0  0
    3.0430   -4.8670   -1.5900 C   0  0
    3.2090   -3.2870   -3.5270 C   0  0
    5.2620   -3.8890   -2.2210 C   0  0
   -4.9860   -2.5260    2.3910 H   0  0
   -5.4200   -1.2540   -1.7130 H   0  0
   -4.3320   -2.5860   -1.4120 H   0  0
   -2.9630   -0.7310   -1.7560 H   0  0
   -3.9120    0.3500   -0.7660 H   0  0
   -2.6170   -1.0040    3.4770 H   0  0
   -2.8280   -2.7380    3.3400 H   0  0
   -0.4260   -2.1230    3.3980 H   0  0
   -0.8540   -2.9420    1.9140 H   0  0
   -1.1370    0.0490   -1.6410 H   0  0
   -0.5060    0.0590    2.3050 H   0  0
    0.9120   -0.9140   -1.3970 H   0  0
    1.2580    0.7690   -1.5610 H   0  0
    0.9840   -2.0390    0.7110 H   0  0
   -2.0720    1.4820    1.3440 H   0  0
    0.0330    2.3500   -2.3170 H   0  0
    1.9960   -2.2950    2.7970 H   0  0
    1.7110   -0.6410    3.2600 H   0  0
   -2.5570    3.8810    1.6440 H   0  0
   -0.4410    4.7520   -2.0290 H   0  0
    0.4790    1.5820    1.4590 H   0  0
    1.8950    2.1540    0.5780 H   0  0
    2.0920    1.3070    2.1110 H   0  0
    3.7110   -0.0200    2.4390 H   0  0
    4.0800   -1.6430    1.9650 H   0  0
    3.6480    0.9100   -0.8630 H   0  0
   -0.1410    6.7420   -1.0570 H   0  0
   -1.4510    7.8160   -0.5800 H   0  0
   -1.6760    6.6910   -1.9160 H   0  0
   -3.6150    5.7710    1.0430 H   0  0
   -2.1410    6.1800    2.0330 H   0  0
   -2.8650    7.3630    0.9470 H   0  0
    3.4020   -5.1310   -0.5940 H   0  0
    3.1990   -5.7290   -2.2380 H   0  0
    1.9690   -4.6940   -1.5220 H   0  0
    3.6880   -2.4010   -3.9430 H   0  0
    2.1370   -3.0960   -3.4810 H   0  0
    3.3690   -4.1110   -4.2250 H   0  0
    5.8010   -3.0200   -2.6000 H   0  0
    5.4790   -4.7270   -2.8830 H   0  0
    5.6640   -4.1270   -1.2360 H   0  0
  1  2  2  0
  2  3  1  0
  2  4  1  0
  3  5  2  0
  4  6  1  0
  5  7  1  0
  5  8  1  0
  7  9  2  0
  8 10  1  0
  9 11  1  0
  9 12  1  0
 11 13  1  0
 11 14  1  0
 12 15  1  0
 13 16  2  0
 13 17  1  0
 14 18  1  0
 15 19  1  0
 16 20  1  0
 17 21  2  0
 18 22  1  0
 18 23  1  0
 19 24  1  0
 20 25  2  0
 22 26  1  0
 22 27  1  0
 25 28  1  0
 27 29  3  0
 28 30  1  0
 28 31  1  0
 29 32  1  0
 32 33  1  0
 32 34  1  0
 32 35  1  0
  6  7  1  0
 12 10  1  0
 15 18  1  0
 21 25  1  0
 22 24  1  0
  3 36  1  0
  4 37  1  0
  4 38  1  0
  6 39  1  0
  6 40  1  0
  8 41  1  0
  8 42  1  0
 10 43  1  0
 10 44  1  0
 11 45  1  0
 12 46  1  0
 14 47  1  0
 14 48  1  0
 15 49  1  0
 16 50  1  0
 17 51  1  0
 19 52  1  0
 19 53  1  0
 20 54  1  0
 21 55  1  0
 23 56  1  0
 23 57  1  0
 23 58  1  0
 24 59  1  0
 24 60  1  0
 26 61  1  0
 30 62  1  0
 30 63  1  0
 30 64  1  0
 31 65  1  0
 31 66  1  0
 31 67  1  0
 33 68  1  0
 33 69  1  0
 33 70  1  0
 34 71  1  0
 34 72  1  0
 34 73  1  0
 35 74  1  0
 35 75  1  0
 35 76  1  0
M  END
> <Name>
CHEMBL4163069

> <IC50 nM>
14.6

> <Molecule_ChEMBL_ID>
CHEMBL4163069

> <Smiles>
CN(C)c1ccc([C@H]2C[C@@]3(C)[C@@H](CC[C@@]3(O)C#CC(C)(C)C)[C@@H]3CCC4=CC(=O)CCC4=C32)cc1

$$$$
CHEMBL1253899
  SciTegic08162514323D

 48 50  0  0  1  0            999 V2000
   -4.9820   -2.3200   -2.7870 F   0  0
   -4.8420   -1.3540   -1.8830 C   0  0
   -3.5570   -0.9320   -1.4980 C   0  0
   -5.9760   -0.7540   -1.3110 C   0  0
   -3.4060    0.0900   -0.5430 C   0  0
   -5.8260    0.2660   -0.3560 C   0  0
   -4.5430    0.6910    0.0310 C   0  0
   -2.0410    0.5270   -0.1450 C   0  0
   -4.4140    1.6480    0.9280 O   0  0
   -0.9590   -0.3240   -0.8090 C   0  0
   -1.8920    0.5900    1.3770 C   0  0
   -2.1780    1.9100   -0.7810 C   0  0
    0.4530    0.1620   -0.4900 C   0  0  2  0  0  0
    0.4470    1.5720   -0.4960 O   0  0
    1.3500   -0.3160   -1.6350 C   0  0
    0.9450   -0.3090    0.8790 C   0  0
    1.6620   -1.6390   -1.4470 F   0  0
    2.5000    0.4280   -1.6560 F   0  0
    0.6860   -0.1680   -2.8240 F   0  0
    2.4570   -0.3340    0.9410 C   0  0
    3.2130   -1.5350    0.9410 N   0  0
    3.3480    0.7560    1.0040 C   0  0
    4.5490   -1.1720    1.0040 C   0  0
    4.5760    0.1990    1.0410 C   0  0
    5.7520   -1.9320    1.0330 C   0  0
    5.8300    0.8440    1.1090 C   0  0
    6.9870   -1.2210    1.1030 C   0  0
    7.0330    0.1700    1.1430 N   0  0
   -2.6830   -1.3930   -1.9400 H   0  0
   -6.9650   -1.0740   -1.6020 H   0  0
   -6.7010    0.7250    0.0820 H   0  0
   -3.5310    1.9730    1.1500 H   0  0
   -1.1170   -0.3730   -1.8870 H   0  0
   -1.0760   -1.3750   -0.5390 H   0  0
   -2.8420    0.4260    1.8850 H   0  0
   -1.5120    1.5620    1.6860 H   0  0
   -1.1910   -0.1700    1.7270 H   0  0
   -3.2260    2.1840   -0.8910 H   0  0
   -1.6760    2.6660   -0.1740 H   0  0
   -1.7230    1.9260   -1.7720 H   0  0
    0.5040    1.8610    0.4280 H   0  0
    0.5550   -1.2990    1.1090 H   0  0
    0.5610    0.3380    1.6700 H   0  0
    2.8540   -2.4630    0.9040 H   0  0
    3.0940    1.8090    1.0200 H   0  0
    5.7310   -3.0120    1.0040 H   0  0
    5.8580    1.9240    1.1390 H   0  0
    7.9120   -1.7770    1.1270 H   0  0
  1  2  1  0
  2  3  2  0
  2  4  1  0
  3  5  1  0
  4  6  2  0
  5  7  2  0
  5  8  1  0
  7  9  1  0
  8 10  1  0
  8 11  1  0
  8 12  1  0
 10 13  1  0
 13 14  1  0
 13 15  1  0
 13 16  1  0
 15 17  1  0
 15 18  1  0
 15 19  1  0
 16 20  1  0
 20 21  1  0
 20 22  2  0
 21 23  1  0
 22 24  1  0
 23 25  1  0
 24 26  1  0
 25 27  2  0
 26 28  2  0
  6  7  1  0
 23 24  2  0
 27 28  1  0
  3 29  1  0
  4 30  1  0
  6 31  1  0
  9 32  1  0
 10 33  1  0
 10 34  1  0
 11 35  1  0
 11 36  1  0
 11 37  1  0
 12 38  1  0
 12 39  1  0
 12 40  1  0
 14 41  1  0
 16 42  1  0
 16 43  1  0
 21 44  1  0
 22 45  1  0
 25 46  1  0
 26 47  1  0
 27 48  1  0
M  END
> <Name>
CHEMBL1253899

> <IC50 nM>
4.7

> <Molecule_ChEMBL_ID>
CHEMBL1253899

> <Smiles>
CC(C)(C[C@@](O)(Cc1cc2cnccc2[nH]1)C(F)(F)F)c1cc(F)ccc1O

$$$$
CHEMBL1254173
  SciTegic08162514323D

 60 63  0  0  1  0            999 V2000
    3.3830    1.3580   -1.0680 F   0  0
    2.0120    1.3730   -1.0370 C   0  0
    1.5780    2.6230   -0.6820 F   0  0
    1.5240    1.0570   -2.2790 F   0  0
    1.5140    0.3500   -0.0180 C   0  0  1  0  0  0
    1.9690   -0.9240   -0.4120 O   0  0
    2.0290    0.6270    1.3970 C   0  0
   -0.0140    0.3590   -0.1000 C   0  0
    3.5370    0.5140    1.4610 C   0  0
   -0.6050   -1.0450   -0.2150 C   0  0
    4.3990    1.6390    1.5370 N   0  0
    4.3260   -0.6540    1.4590 C   0  0
   -2.0140   -0.5800   -0.0980 C   0  0
   -0.3380   -1.6890   -1.5740 C   0  0
   -0.2130   -1.9490    0.9550 C   0  0
    5.6900    1.1450    1.5820 C   0  0
    5.6060   -0.2250    1.5310 C   0  0
   -2.5800   -0.3400    1.1700 C   0  0
   -2.7790   -0.3790   -1.2600 C   0  0
    6.9650    1.7380    1.6620 C   0  0
    6.7780   -1.0310    1.5590 C   0  0
   -1.8710   -0.5250    2.2660 O   0  0
   -3.9120    0.1000    1.2660 C   0  0
   -4.1110    0.0630   -1.1620 C   0  0
    8.1410    1.0180    1.6930 N   0  0
    8.0410   -0.3690    1.6430 C   0  0
   -2.4880   -0.2480    3.5140 C   0  0
   -4.6780    0.3010    0.1060 C   0  0
   -4.9040    0.2700   -2.3650 C   0  0
   -4.3510    0.0270   -3.6370 C   0  0
   -6.2340    0.7190   -2.2790 C   0  0
   -5.1430    0.2360   -4.7830 C   0  0
   -6.9770    0.9100   -3.4610 C   0  0
   -6.4320    0.6720   -4.6890 N   0  0
    2.9010   -0.8300   -0.6640 H   0  0
    1.5820   -0.0640    2.1110 H   0  0
    1.7250    1.6170    1.7310 H   0  0
   -0.4410    0.8910    0.7500 H   0  0
   -0.3490    0.9880   -0.9240 H   0  0
    4.1270    2.5940    1.5550 H   0  0
    3.9770   -1.6780    1.4080 H   0  0
   -1.1820   -2.2930   -1.9120 H   0  0
    0.5370   -2.3380   -1.5290 H   0  0
   -0.1500   -0.9280   -2.3320 H   0  0
   -1.0370   -2.5900    1.2680 H   0  0
    0.0920   -1.3550    1.8150 H   0  0
    0.6230   -2.5920    0.6800 H   0  0
   -2.3340   -0.5640   -2.2290 H   0  0
    7.0300    2.8170    1.7010 H   0  0
    6.7230   -2.1090    1.5200 H   0  0
   -4.3500    0.2830    2.2360 H   0  0
    8.9440   -0.9610    1.6640 H   0  0
   -2.7400    0.8130    3.5410 H   0  0
   -3.3160   -0.9430    3.6490 H   0  0
   -1.7620   -0.4370    4.3050 H   0  0
   -5.6990    0.6390    0.1990 H   0  0
   -3.3340   -0.3180   -3.7460 H   0  0
   -6.6970    0.9180   -1.3220 H   0  0
   -4.7190    0.0490   -5.7600 H   0  0
   -7.9980    1.2540   -3.3950 H   0  0
  1  2  1  0
  2  3  1  0
  2  4  1  0
  2  5  1  0
  5  6  1  0
  5  7  1  0
  5  8  1  0
  7  9  1  0
  8 10  1  0
  9 11  1  0
  9 12  2  0
 10 13  1  0
 10 14  1  0
 10 15  1  0
 11 16  1  0
 12 17  1  0
 13 18  2  0
 13 19  1  0
 16 20  1  0
 17 21  1  0
 18 22  1  0
 18 23  1  0
 19 24  2  0
 20 25  2  0
 21 26  2  0
 22 27  1  0
 23 28  2  0
 24 29  1  0
 29 30  2  0
 29 31  1  0
 30 32  1  0
 31 33  2  0
 32 34  2  0
 16 17  2  0
 24 28  1  0
 25 26  1  0
 33 34  1  0
  6 35  1  0
  7 36  1  0
  7 37  1  0
  8 38  1  0
  8 39  1  0
 11 40  1  0
 12 41  1  0
 14 42  1  0
 14 43  1  0
 14 44  1  0
 15 45  1  0
 15 46  1  0
 15 47  1  0
 19 48  1  0
 20 49  1  0
 21 50  1  0
 23 51  1  0
 26 52  1  0
 27 53  1  0
 27 54  1  0
 27 55  1  0
 28 56  1  0
 30 57  1  0
 31 58  1  0
 32 59  1  0
 33 60  1  0
M  END
> <Name>
CHEMBL1254173

> <IC50 nM>
8

> <Molecule_ChEMBL_ID>
CHEMBL1254173

> <Smiles>
COc1ccc(-c2ccncc2)cc1C(C)(C)CC(O)(Cc1cc2ccncc2[nH]1)C(F)(F)F

$$$$
CHEMBL1253987
  SciTegic08162514323D

 47 49  0  0  1  0            999 V2000
   -4.6310   -4.6110   -0.5720 F   0  0
   -4.4280   -3.3010   -0.4530 C   0  0
   -3.1450   -2.7660   -0.6700 C   0  0
   -5.4940   -2.4510   -0.1110 C   0  0
   -2.9300   -1.3810   -0.5450 C   0  0
   -5.2790   -1.0680    0.0140 C   0  0
   -3.9980   -0.5330   -0.2030 C   0  0
   -1.5740   -0.8150   -0.7750 C   0  0
   -1.5490    0.6950   -0.5370 C   0  0
   -1.0270   -1.2070   -2.1460 C   0  0
   -0.9300   -1.6020    0.3650 C   0  0
   -0.1290    1.2500   -0.4240 C   0  0  1  0  0  0
    0.7340    0.4080   -1.1560 O   0  0
   -0.1410    2.6230   -1.0980 C   0  0
    0.3690    1.3070    1.0200 C   0  0
    1.0980    3.1990   -0.9840 F   0  0
   -1.0740    3.4220   -0.4900 F   0  0
   -0.4570    2.4790   -2.4240 F   0  0
    1.8790    1.1930    1.0840 C   0  0
    2.7380    2.3180    1.1600 N   0  0
    2.6680    0.0250    1.0820 C   0  0
    4.0310    1.8240    1.2050 C   0  0
    3.9450    0.4570    1.1560 C   0  0
    5.3070    2.4200    1.2850 C   0  0
    5.1190   -0.3500    1.1840 C   0  0
    6.4830    1.6990    1.3180 N   0  0
    6.3810    0.3120    1.2660 C   0  0
   -2.3260   -3.4180   -0.9340 H   0  0
   -6.4810   -2.8590    0.0570 H   0  0
   -6.1000   -0.4160    0.2770 H   0  0
   -3.8400    0.5310   -0.1050 H   0  0
   -2.1350    0.9570    0.3420 H   0  0
   -2.1050    1.2170   -1.3160 H   0  0
   -1.6740   -1.9220   -2.6540 H   0  0
   -0.0390   -1.6600   -2.0530 H   0  0
   -0.9300   -0.3300   -2.7890 H   0  0
   -0.8980   -2.6660    0.1290 H   0  0
    0.0860   -1.2500    0.5510 H   0  0
   -1.4980   -1.4820    1.2870 H   0  0
    1.4980    0.9430   -1.4240 H   0  0
   -0.0800    0.5100    1.6130 H   0  0
    0.0530    2.2320    1.5000 H   0  0
    2.4670    3.2750    1.1780 H   0  0
    2.3160   -0.9960    1.0330 H   0  0
    5.3690    3.4960    1.3260 H   0  0
    5.0630   -1.4280    1.1430 H   0  0
    7.2850   -0.2810    1.2890 H   0  0
  1  2  1  0
  2  3  2  0
  2  4  1  0
  3  5  1  0
  4  6  2  0
  5  7  2  0
  5  8  1  0
  8  9  1  0
  8 10  1  0
  8 11  1  0
  9 12  1  0
 12 13  1  0
 12 14  1  0
 12 15  1  0
 14 16  1  0
 14 17  1  0
 14 18  1  0
 15 19  1  0
 19 20  1  0
 19 21  2  0
 20 22  1  0
 21 23  1  0
 22 24  1  0
 23 25  1  0
 24 26  2  0
 25 27  2  0
  6  7  1  0
 22 23  2  0
 26 27  1  0
  3 28  1  0
  4 29  1  0
  6 30  1  0
  7 31  1  0
  9 32  1  0
  9 33  1  0
 10 34  1  0
 10 35  1  0
 10 36  1  0
 11 37  1  0
 11 38  1  0
 11 39  1  0
 13 40  1  0
 15 41  1  0
 15 42  1  0
 20 43  1  0
 21 44  1  0
 24 45  1  0
 25 46  1  0
 27 47  1  0
M  END
> <Name>
CHEMBL1253987

> <IC50 nM>
23

> <Molecule_ChEMBL_ID>
CHEMBL1253987

> <Smiles>
CC(C)(CC(O)(Cc1cc2ccncc2[nH]1)C(F)(F)F)c1cccc(F)c1

$$$$
CHEMBL1254344
  SciTegic08162514323D

 57 60  0  0  1  0            999 V2000
    2.0290    1.7710   -0.9370 F   0  0
    2.0430    0.4780   -1.3910 C   0  0
    1.4020    0.4100   -2.6000 F   0  0
    3.3400    0.0610   -1.5370 F   0  0
    1.3280   -0.4220   -0.3830 C   0  0  1  0  0  0
    1.5510   -1.7640   -0.7560 O   0  0
    1.8360   -0.2310    1.0450 C   0  0
   -0.1660   -0.1310   -0.5210 C   0  0
    3.3440   -0.3440    1.1110 C   0  0
   -0.9960   -0.7500    0.6040 C   0  0
    4.2050    0.7810    1.1860 N   0  0
    4.1330   -1.5120    1.1090 C   0  0
   -2.4470   -0.4690    0.4340 C   0  0
   -0.7300   -2.2460    0.7750 C   0  0
   -0.8830    0.0230    1.9160 C   0  0
    5.4960    0.2870    1.2310 C   0  0
    5.4120   -1.0820    1.1820 C   0  0
   -3.3890   -1.0330    1.3160 C   0  0
   -2.8750    0.3670   -0.6150 C   0  0
    6.7720    0.8830    1.3130 C   0  0
    6.5840   -1.8890    1.2090 C   0  0
   -2.9980   -1.8160    2.3010 O   0  0
   -4.7560   -0.7560    1.1430 C   0  0
   -4.2440    0.6430   -0.7850 C   0  0
    7.9470    0.1620    1.3440 N   0  0
    7.8480   -1.2250    1.2910 C   0  0
   -5.1860    0.0780    0.0980 C   0  0
   -4.6880    1.5060   -1.8690 C   0  0
   -6.0590    1.7870   -2.0450 C   0  0
   -3.7500    2.0740   -2.7540 C   0  0
   -6.4960    2.5940   -3.0570 N   0  0
   -4.2130    2.9040   -3.7890 C   0  0
   -5.5940    3.1480   -3.9180 C   0  0
    1.7750   -2.2520    0.0530 H   0  0
    1.3890   -0.9650    1.7150 H   0  0
    1.5270    0.7380    1.4380 H   0  0
   -0.3460    0.9430   -0.5860 H   0  0
   -0.5350   -0.4550   -1.4960 H   0  0
    3.9340    1.7360    1.2030 H   0  0
    3.7830   -2.5330    1.0590 H   0  0
   -1.6230   -2.7830    1.1020 H   0  0
    0.0490   -2.4160    1.5180 H   0  0
   -0.4000   -2.6900   -0.1640 H   0  0
   -1.8690    0.2150    2.3380 H   0  0
   -0.2890   -0.5310    2.6410 H   0  0
   -0.3980    0.9860    1.7540 H   0  0
   -2.1430    0.7950   -1.2850 H   0  0
    6.8360    1.9590    1.3520 H   0  0
    6.5290   -2.9670    1.1680 H   0  0
   -2.1040   -1.7230    2.6520 H   0  0
   -5.4820   -1.1880    1.8180 H   0  0
    8.7500   -1.8180    1.3150 H   0  0
   -6.2420    0.2770   -0.0190 H   0  0
   -6.7910    1.3590   -1.3750 H   0  0
   -2.6910    1.8830   -2.6500 H   0  0
   -3.5140    3.3520   -4.4820 H   0  0
   -5.9470    3.7870   -4.7150 H   0  0
  1  2  1  0
  2  3  1  0
  2  4  1  0
  2  5  1  0
  5  6  1  0
  5  7  1  0
  5  8  1  0
  7  9  1  0
  8 10  1  0
  9 11  1  0
  9 12  2  0
 10 13  1  0
 10 14  1  0
 10 15  1  0
 11 16  1  0
 12 17  1  0
 13 18  2  0
 13 19  1  0
 16 20  1  0
 17 21  1  0
 18 22  1  0
 18 23  1  0
 19 24  2  0
 20 25  2  0
 21 26  2  0
 23 27  2  0
 24 28  1  0
 28 29  2  0
 28 30  1  0
 29 31  1  0
 30 32  2  0
 31 33  2  0
 16 17  2  0
 24 27  1  0
 25 26  1  0
 32 33  1  0
  6 34  1  0
  7 35  1  0
  7 36  1  0
  8 37  1  0
  8 38  1  0
 11 39  1  0
 12 40  1  0
 14 41  1  0
 14 42  1  0
 14 43  1  0
 15 44  1  0
 15 45  1  0
 15 46  1  0
 19 47  1  0
 20 48  1  0
 21 49  1  0
 22 50  1  0
 23 51  1  0
 26 52  1  0
 27 53  1  0
 29 54  1  0
 30 55  1  0
 32 56  1  0
 33 57  1  0
M  END
> <Name>
CHEMBL1254344

> <IC50 nM>
2000

> <Molecule_ChEMBL_ID>
CHEMBL1254344

> <Smiles>
CC(C)(CC(O)(Cc1cc2ccncc2[nH]1)C(F)(F)F)c1cc(-c2cccnc2)ccc1O

$$$$
CHEMBL391917
  SciTegic08162514323D

 50 51  0  0  1  0            999 V2000
    3.0040    1.1370    4.8420 F   0  0
    2.8630    1.5000    3.5680 C   0  0
    2.1330    0.6900    2.6810 C   0  0
    3.4430    2.6950    3.1090 C   0  0
    1.9840    1.0720    1.3380 C   0  0
    3.2930    3.0780    1.7650 C   0  0
    2.5650    2.2700    0.8770 C   0  0
    1.2090    0.2070    0.4080 C   0  0
    2.4320    2.6390   -0.3830 O   0  0
    0.0200    1.1640    0.3280 C   0  0
    0.8480   -1.1310    1.0550 C   0  0
    1.9240    0.0390   -0.9340 C   0  0
    2.5200    4.0240   -0.6840 C   0  0
   -1.2520    0.4830   -0.1800 C   0  0  1  0  0  0
   -1.6740   -0.4450    0.7950 O   0  0
   -2.3160    1.5740   -0.2930 C   0  0
   -1.0350   -0.2690   -1.4920 C   0  0
   -1.8870    2.5410   -1.1660 F   0  0
   -2.5290    2.1350    0.9390 F   0  0
   -3.4840    1.0270   -0.7560 F   0  0
   -1.7300   -1.5820   -1.4920 C   0  0
   -3.1370   -1.6350   -1.4920 C   0  0
   -0.9860   -2.7750   -1.4920 C   0  0
   -3.7950   -2.8770   -1.4920 C   0  0
   -1.6450   -4.0180   -1.4920 C   0  0
   -3.0490   -4.0700   -1.4920 C   0  0
   -3.7480   -5.3890   -1.4920 C   0  0
   -4.9550   -5.4530   -1.4870 O   0  0
    1.6880   -0.2280    3.0370 H   0  0
    4.0040    3.3220    3.7870 H   0  0
    3.7400    3.9980    1.4180 H   0  0
    0.2640    2.0310   -0.2870 H   0  0
   -0.1560    1.6410    1.2910 H   0  0
    1.7320   -1.6780    1.3810 H   0  0
    0.3050   -1.7640    0.3530 H   0  0
    0.2130   -0.9780    1.9280 H   0  0
    1.7460   -0.9430   -1.3670 H   0  0
    3.0020    0.1620   -0.8130 H   0  0
    1.5820    0.7870   -1.6490 H   0  0
    1.9340    4.5720    0.0530 H   0  0
    3.5740    4.2910   -0.7560 H   0  0
    2.0660    4.1920   -1.6600 H   0  0
   -2.6350   -0.3420    0.8900 H   0  0
    0.0270   -0.4220   -1.6800 H   0  0
   -1.3810    0.3240   -2.3380 H   0  0
   -3.7150   -0.7230   -1.4920 H   0  0
    0.0940   -2.7420   -1.4920 H   0  0
   -4.8750   -2.9080   -1.4920 H   0  0
   -1.0620   -4.9280   -1.4920 H   0  0
   -3.1620   -6.2970   -1.5000 H   0  0
  1  2  1  0
  2  3  2  0
  2  4  1  0
  3  5  1  0
  4  6  2  0
  5  7  2  0
  5  8  1  0
  7  9  1  0
  8 10  1  0
  8 11  1  0
  8 12  1  0
  9 13  1  0
 10 14  1  0
 14 15  1  0
 14 16  1  0
 14 17  1  0
 16 18  1  0
 16 19  1  0
 16 20  1  0
 17 21  1  0
 21 22  2  0
 21 23  1  0
 22 24  1  0
 23 25  2  0
 24 26  2  0
 26 27  1  0
 27 28  2  0
  6  7  1  0
 25 26  1  0
  3 29  1  0
  4 30  1  0
  6 31  1  0
 10 32  1  0
 10 33  1  0
 11 34  1  0
 11 35  1  0
 11 36  1  0
 12 37  1  0
 12 38  1  0
 12 39  1  0
 13 40  1  0
 13 41  1  0
 13 42  1  0
 15 43  1  0
 17 44  1  0
 17 45  1  0
 22 46  1  0
 23 47  1  0
 24 48  1  0
 25 49  1  0
 27 50  1  0
M  END
> <Name>
CHEMBL391917

> <IC50 nM>
20

> <Molecule_ChEMBL_ID>
CHEMBL391917

> <Smiles>
COc1ccc(F)cc1C(C)(C)CC(O)(Cc1ccc(C=O)cc1)C(F)(F)F

$$$$
CHEMBL392501
  SciTegic08162514323D

 55 56  0  0  1  0            999 V2000
   -4.9120   -1.9800    3.1680 F   0  0
   -4.0510   -2.4450    2.2660 C   0  0
   -2.7580   -1.9000    2.1800 C   0  0
   -4.4360   -3.4800    1.3950 C   0  0
   -1.8480   -2.3930    1.2270 C   0  0
   -3.5270   -3.9710    0.4430 C   0  0
   -2.2320   -3.4300    0.3530 C   0  0
   -0.4820   -1.8110    1.1450 C   0  0
   -1.3870   -3.8980   -0.5450 O   0  0
   -0.8110   -0.9160   -0.0510 C   0  0
    0.5660   -2.8750    0.8160 C   0  0
   -0.1370   -1.0100    2.4000 C   0  0
   -1.7910   -5.0180   -1.3200 C   0  0
    0.3300    0.0370   -0.4080 C   0  0  1  0  0  0
    1.5490   -0.6560   -0.2520 O   0  0
    0.1620    0.3850   -1.8870 C   0  0
    0.3670    1.2750    0.4880 C   0  0
    1.2300    1.1350   -2.3050 F   0  0
   -0.9940    1.1000   -2.0610 F   0  0
    0.1000   -0.7710   -2.6230 F   0  0
    1.2320    2.3440   -0.0860 C   0  0
    0.6840    3.5020   -0.6800 C   0  0
    2.6290    2.1900   -0.0330 C   0  0
   -0.7480    3.6680   -0.7380 C   0  0
    1.5290    4.5000   -1.2150 C   0  0
    3.4730    3.1780   -0.5660 C   0  0
   -1.9000    3.8030   -0.7850 N   0  0
    2.9240    4.3300   -1.1540 C   0  0
    0.9790    5.7330   -1.8460 C   0  0
    4.9470    3.0060   -0.5080 C   0  0
   -2.4630   -1.1050    2.8500 H   0  0
   -5.4280   -3.9000    1.4570 H   0  0
   -3.8260   -4.7660   -0.2250 H   0  0
   -1.7340   -0.3650    0.1230 H   0  0
   -1.0940   -1.5180   -0.9160 H   0  0
    0.2990   -3.8480    1.2270 H   0  0
    1.5370   -2.5980    1.2250 H   0  0
    0.6760   -2.9860   -0.2620 H   0  0
   -0.3540   -1.5680    3.3110 H   0  0
   -0.7050   -0.0800    2.4360 H   0  0
    0.9240   -0.7500    2.4140 H   0  0
   -1.9920   -5.8480   -0.6430 H   0  0
   -2.6170   -4.7070   -1.9610 H   0  0
   -0.9610   -5.3050   -1.9630 H   0  0
    1.8750   -0.4630    0.6410 H   0  0
    0.7210    1.0180    1.4860 H   0  0
   -0.6390    1.6660    0.6450 H   0  0
    3.0570    1.3050    0.4180 H   0  0
    3.5760    5.0880   -1.5630 H   0  0
    1.7380    6.4200   -2.2210 H   0  0
    0.3710    6.2720   -1.1210 H   0  0
    0.3360    5.4590   -2.6820 H   0  0
    5.2720    1.9980   -0.2520 H   0  0
    5.3630    3.6880    0.2340 H   0  0
    5.3810    3.2620   -1.4750 H   0  0
  1  2  1  0
  2  3  2  0
  2  4  1  0
  3  5  1  0
  4  6  2  0
  5  7  2  0
  5  8  1  0
  7  9  1  0
  8 10  1  0
  8 11  1  0
  8 12  1  0
  9 13  1  0
 10 14  1  0
 14 15  1  0
 14 16  1  0
 14 17  1  0
 16 18  1  0
 16 19  1  0
 16 20  1  0
 17 21  1  0
 21 22  2  0
 21 23  1  0
 22 24  1  0
 22 25  1  0
 23 26  2  0
 24 27  3  0
 25 28  2  0
 25 29  1  0
 26 30  1  0
  6  7  1  0
 26 28  1  0
  3 31  1  0
  4 32  1  0
  6 33  1  0
 10 34  1  0
 10 35  1  0
 11 36  1  0
 11 37  1  0
 11 38  1  0
 12 39  1  0
 12 40  1  0
 12 41  1  0
 13 42  1  0
 13 43  1  0
 13 44  1  0
 15 45  1  0
 17 46  1  0
 17 47  1  0
 23 48  1  0
 28 49  1  0
 29 50  1  0
 29 51  1  0
 29 52  1  0
 30 53  1  0
 30 54  1  0
 30 55  1  0
M  END
> <Name>
CHEMBL392501

> <IC50 nM>
8

> <Molecule_ChEMBL_ID>
CHEMBL392501

> <Smiles>
COc1ccc(F)cc1C(C)(C)CC(O)(Cc1cc(C)cc(C)c1C#N)C(F)(F)F

$$$$
CHEMBL462282
  SciTegic08162514323D

 58 60  0  0  1  0            999 V2000
   -0.7910   -2.9880    1.3790 F   0  0
   -2.1130   -3.1450    1.3360 C   0  0
   -2.9670   -2.0290    1.2110 C   0  0
   -2.6580   -4.4400    1.4140 C   0  0
   -2.4040   -0.6490    1.1250 C   0  0
   -4.3610   -2.2170    1.1660 C   0  0
   -4.0510   -4.6230    1.3690 C   0  0
   -1.7300   -0.3090    0.1800 O   0  0
   -2.6620    0.2300    2.1390 N   0  0
   -4.9000   -3.5120    1.2440 C   0  0
   -2.1800    1.6130    2.0350 C   0  0
   -3.4140   -0.1760    3.3360 C   0  0
   -0.8340    1.7790    2.7440 C   0  0  2  0  0  0
   -2.6780   -1.2780    4.0980 C   0  0
   -1.0040    1.4330    4.1000 O   0  0
   -0.4820    3.2660    2.6700 C   0  0
    0.2580    0.8850    2.1540 C   0  0
   -1.3380    3.9780    3.4710 F   0  0
   -0.6010    3.7010    1.3750 F   0  0
    0.8070    3.4530    3.0980 F   0  0
    0.5000    1.2130    0.7420 N   0  0
    1.5900    0.6850    0.1090 C   0  0
    2.3500   -0.0430    0.7050 O   0  0
    1.8360    1.0060   -1.2910 C   0  0
    2.9180    0.5530   -2.0840 C   0  0
    1.0270    1.8320   -2.1000 C   0  0
    2.7330    1.1010   -3.3110 N   0  0
    4.0060   -0.3380   -1.6370 N   0  0
    1.6250    1.8480   -3.3050 N   0  0
    3.5350    0.9370   -4.3950 C   0  0
    3.0000    0.4470   -5.6020 C   0  0
    4.9040    1.2580   -4.3170 C   0  0
    3.8300    0.2770   -6.7230 C   0  0
    5.7330    1.0860   -5.4380 C   0  0
    5.1970    0.5970   -6.6430 C   0  0
    5.9830    0.4350   -7.7050 F   0  0
   -2.0080   -5.2970    1.5100 H   0  0
   -5.0230   -1.3690    1.0700 H   0  0
   -4.4670   -5.6170    1.4310 H   0  0
   -5.9730   -3.6530    1.2110 H   0  0
   -2.9240    2.2870    2.4610 H   0  0
   -2.0960    1.8870    0.9820 H   0  0
   -3.5680    0.6950    3.9730 H   0  0
   -4.4080   -0.5080    3.0390 H   0  0
   -3.0390   -1.3440    5.1230 H   0  0
   -2.8160   -2.2420    3.6070 H   0  0
   -1.6070   -1.0740    4.1330 H   0  0
   -0.1580    1.5980    4.5450 H   0  0
   -0.0190   -0.1660    2.2360 H   0  0
    1.1880    0.9940    2.7130 H   0  0
   -0.1270    1.8140    0.2460 H   0  0
    0.1150    2.3590   -1.8480 H   0  0
    4.0280   -0.7310   -0.7170 H   0  0
    4.7540   -0.5650   -2.2600 H   0  0
    1.9510    0.1950   -5.6840 H   0  0
    5.3360    1.6350   -3.3990 H   0  0
    3.4140   -0.0980   -7.6470 H   0  0
    6.7830    1.3340   -5.3710 H   0  0
  1  2  1  0
  2  3  2  0
  2  4  1  0
  3  5  1  0
  3  6  1  0
  4  7  2  0
  5  8  2  0
  5  9  1  0
  6 10  2  0
  9 11  1  0
  9 12  1  0
 11 13  1  0
 12 14  1  0
 13 15  1  0
 13 16  1  0
 13 17  1  0
 16 18  1  0
 16 19  1  0
 16 20  1  0
 17 21  1  0
 21 22  1  0
 22 23  2  0
 22 24  1  0
 24 25  2  0
 24 26  1  0
 25 27  1  0
 25 28  1  0
 26 29  2  0
 27 30  1  0
 30 31  2  0
 30 32  1  0
 31 33  1  0
 32 34  2  0
 33 35  2  0
 35 36  1  0
  7 10  1  0
 27 29  1  0
 34 35  1  0
  4 37  1  0
  6 38  1  0
  7 39  1  0
 10 40  1  0
 11 41  1  0
 11 42  1  0
 12 43  1  0
 12 44  1  0
 14 45  1  0
 14 46  1  0
 14 47  1  0
 15 48  1  0
 17 49  1  0
 17 50  1  0
 21 51  1  0
 26 52  1  0
 28 53  1  0
 28 54  1  0
 31 55  1  0
 32 56  1  0
 33 57  1  0
 34 58  1  0
M  END
> <Name>
CHEMBL462282

> <IC50 nM>
12.59

> <Molecule_ChEMBL_ID>
CHEMBL462282

> <Smiles>
CCN(CC(O)(CNC(=O)c1cnn(-c2ccc(F)cc2)c1N)C(F)(F)F)C(=O)c1ccccc1F

$$$$
CHEMBL516033
  SciTegic08162514323D

 64 66  0  0  1  0            999 V2000
   -4.3670   -3.5940   -2.3870 S   0  0
   -3.3500   -3.5410   -3.4220 O   0  0
   -5.1310   -2.3630   -2.2720 O   0  0
   -3.5860   -3.8930   -0.8730 C   0  0
   -5.4880   -4.9400   -2.7460 C   0  0
   -2.8220   -2.8850   -0.2540 C   0  0
   -3.7210   -5.1520   -0.2680 C   0  0
   -2.1930   -3.1470    0.9800 C   0  0
   -2.6840   -1.5450   -0.9040 C   0  0
   -3.0940   -5.4100    0.9630 C   0  0
   -1.4670   -2.2090    1.5860 F   0  0
   -2.3300   -4.4080    1.5860 C   0  0
   -2.1290   -1.4280   -1.9710 O   0  0
   -3.1970   -0.4510   -0.2680 N   0  0
   -3.0180    0.8810   -0.8670 C   0  0
   -3.9260   -0.5680    1.0020 C   0  0
   -1.8110    1.5960   -0.2640 C   0  0  2  0  0  0
   -5.1910    0.2870    0.9900 C   0  0
   -2.0800    1.8460    1.0980 O   0  0
   -1.6930    2.9390   -0.9820 C   0  0
   -0.5290    0.7660   -0.3520 C   0  0
   -1.2210    2.7360   -2.2540 F   0  0
   -0.8260    3.7520   -0.2970 F   0  0
   -2.9280    3.5330   -1.0430 F   0  0
    0.6020    1.4730    0.2700 N   0  0
    1.8730    1.1970   -0.1430 C   0  0
    2.0700    0.3770   -1.0100 O   0  0
    2.9960    1.8960    0.4710 C   0  0
    4.3670    1.7300    0.1540 C   0  0
    2.9040    2.8650    1.4920 C   0  0
    5.0390    2.5800    0.9710 N   0  0
    4.9180    0.8120   -0.8630 N   0  0
    4.1720    3.2360    1.7460 N   0  0
    6.3870    2.7580    1.0140 C   0  0
    6.9320    4.0530    0.9340 C   0  0
    7.2420    1.6450    1.1390 C   0  0
    8.3240    4.2360    0.9800 C   0  0
    8.6350    1.8300    1.1840 C   0  0
    9.1760    3.1250    1.1050 C   0  0
   10.4940    3.2990    1.1470 F   0  0
   -6.2290   -5.1270   -1.9670 H   0  0
   -4.9200   -5.8580   -2.8930 H   0  0
   -6.0250   -4.7270   -3.6700 H   0  0
   -4.3070   -5.9240   -0.7440 H   0  0
   -3.1970   -6.3790    1.4280 H   0  0
   -1.8480   -4.6110    2.5310 H   0  0
   -3.9260    1.4650   -0.7190 H   0  0
   -2.9040    0.7750   -1.9450 H   0  0
   -4.1700   -1.6150    1.1800 H   0  0
   -3.2700   -0.2730    1.8200 H   0  0
   -5.8560    0.0060    1.8090 H   0  0
   -4.9430    1.3460    1.0800 H   0  0
   -5.7380    0.1520    0.0570 H   0  0
   -2.9020    2.3590    1.1370 H   0  0
   -0.2850    0.5430   -1.3910 H   0  0
   -0.6600   -0.1990    0.1390 H   0  0
    0.4390    2.1500    0.9860 H   0  0
    2.0270    3.2540    1.9900 H   0  0
    5.8990    0.7540   -1.0470 H   0  0
    4.3050    0.2270   -1.3910 H   0  0
    6.2930    4.9200    0.8380 H   0  0
    6.8440    0.6430    1.2010 H   0  0
    8.7360    5.2320    0.9180 H   0  0
    9.2850    0.9730    1.2790 H   0  0
  1  2  2  0
  1  3  2  0
  1  4  1  0
  1  5  1  0
  4  6  2  0
  4  7  1  0
  6  8  1  0
  6  9  1  0
  7 10  2  0
  8 11  1  0
  8 12  2  0
  9 13  2  0
  9 14  1  0
 14 15  1  0
 14 16  1  0
 15 17  1  0
 16 18  1  0
 17 19  1  0
 17 20  1  0
 17 21  1  0
 20 22  1  0
 20 23  1  0
 20 24  1  0
 21 25  1  0
 25 26  1  0
 26 27  2  0
 26 28  1  0
 28 29  2  0
 28 30  1  0
 29 31  1  0
 29 32  1  0
 30 33  2  0
 31 34  1  0
 34 35  2  0
 34 36  1  0
 35 37  1  0
 36 38  2  0
 37 39  2  0
 39 40  1  0
 10 12  1  0
 31 33  1  0
 38 39  1  0
  5 41  1  0
  5 42  1  0
  5 43  1  0
  7 44  1  0
 10 45  1  0
 12 46  1  0
 15 47  1  0
 15 48  1  0
 16 49  1  0
 16 50  1  0
 18 51  1  0
 18 52  1  0
 18 53  1  0
 19 54  1  0
 21 55  1  0
 21 56  1  0
 25 57  1  0
 30 58  1  0
 32 59  1  0
 32 60  1  0
 35 61  1  0
 36 62  1  0
 37 63  1  0
 38 64  1  0
M  END
> <Name>
CHEMBL516033

> <IC50 nM>
50.12

> <Molecule_ChEMBL_ID>
CHEMBL516033

> <Smiles>
CCN(CC(O)(CNC(=O)c1cnn(-c2ccc(F)cc2)c1N)C(F)(F)F)C(=O)c1c(F)cccc1S(C)(=O)=O

$$$$
CHEMBL5273844
  SciTegic08162514323D

 60 64  0  0  0  0            999 V2000
    1.9570   -3.1230    0.0020 S   0  0
    3.3070   -3.3480   -0.4840 O   0  0
    1.6270   -3.9260    1.1660 O   0  0
    1.8480   -1.5660    0.4340 N   0  0
    0.8530   -3.5210   -1.2640 C   0  0
    3.2230   -1.0210    1.0940 S   0  0
    0.7950   -0.7460    0.3050 C   0  0
    0.1230   -4.7230   -1.2030 C   0  0
    0.6860   -2.6460   -2.3500 C   0  0
    3.9020   -2.1600    1.6870 O   0  0
    3.9880   -0.3810    0.0410 O   0  0
    2.9280    0.1410    2.3360 C   0  0
   -0.5220   -1.2640    0.2930 C   0  0
    0.9860    0.6510    0.1780 C   0  0
   -0.7750   -5.0530   -2.2330 C   0  0
   -0.2130   -2.9690   -3.3830 C   0  0
    3.7170    1.3030    2.4080 C   0  0
    1.9000   -0.0760    3.2700 C   0  0
   -1.6430   -0.4040    0.1540 C   0  0
   -0.1210    1.5160    0.0410 C   0  0
   -0.9410   -4.1720   -3.3180 C   0  0
    3.4800    2.2520    3.4180 C   0  0
    1.6600    0.8670    4.2830 C   0  0
   -1.4550    1.0100    0.0270 C   0  0
   -3.0020   -1.0060    0.1480 C   0  0
   -1.8610   -4.5060   -4.3730 C   0  0
    2.4510    2.0290    4.3520 C   0  0
   -2.5330    1.8480   -0.1060 N   0  0
   -4.0140   -0.1190   -0.5840 C   0  0
   -2.6020   -4.7730   -5.2250 N   0  0
    2.2070    2.9980    5.3870 C   0  0
   -2.3870    3.2050   -0.2680 C   0  0
   -3.9300    1.3240   -0.0740 C   0  0
    2.0100    3.7790    6.2230 N   0  0
   -3.0940    3.9730    0.3420 O   0  0
   -1.3730    3.7050   -1.1840 C   0  0
   -0.9570    2.8810   -2.1880 O   0  0
   -0.7360    4.9490   -1.1900 C   0  0
   -0.0270    3.6330   -2.8480 C   0  0
    0.1410    4.8990   -2.2740 C   0  0
    0.2540   -5.3940   -0.3670 H   0  0
    1.2460   -1.7230   -2.3930 H   0  0
   -0.6860   -2.3280    0.3890 H   0  0
    1.9800    1.0740    0.1840 H   0  0
   -1.3300   -5.9780   -2.1740 H   0  0
   -0.3320   -2.2850   -4.2110 H   0  0
    4.5060    1.4690    1.6870 H   0  0
    1.2970   -0.9690    3.2130 H   0  0
    0.0840    2.5720   -0.0510 H   0  0
    4.0940    3.1410    3.4630 H   0  0
    0.8670    0.6900    4.9960 H   0  0
   -2.9860   -1.9940   -0.3150 H   0  0
   -3.3180   -1.1460    1.1840 H   0  0
   -3.8150   -0.1420   -1.6580 H   0  0
   -5.0220   -0.5100   -0.4490 H   0  0
   -4.5860    1.9590   -0.6720 H   0  0
   -4.2930    1.3750    0.9550 H   0  0
   -0.8890    5.7720   -0.5020 H   0  0
    0.5140    3.2760   -3.7150 H   0  0
    0.8120    5.6800   -2.6040 H   0  0
  1  2  2  0
  1  3  2  0
  1  4  1  0
  1  5  1  0
  4  6  1  0
  4  7  1  0
  5  8  2  0
  5  9  1  0
  6 10  2  0
  6 11  2  0
  6 12  1  0
  7 13  2  0
  7 14  1  0
  8 15  1  0
  9 16  2  0
 12 17  2  0
 12 18  1  0
 13 19  1  0
 14 20  2  0
 15 21  2  0
 17 22  1  0
 18 23  2  0
 19 24  2  0
 19 25  1  0
 21 26  1  0
 22 27  2  0
 24 28  1  0
 25 29  1  0
 26 30  3  0
 27 31  1  0
 28 32  1  0
 28 33  1  0
 31 34  3  0
 32 35  2  0
 32 36  1  0
 36 37  1  0
 36 38  2  0
 37 39  1  0
 38 40  1  0
 16 21  1  0
 20 24  1  0
 23 27  1  0
 29 33  1  0
 39 40  2  0
  8 41  1  0
  9 42  1  0
 13 43  1  0
 14 44  1  0
 15 45  1  0
 16 46  1  0
 17 47  1  0
 18 48  1  0
 20 49  1  0
 22 50  1  0
 23 51  1  0
 25 52  1  0
 25 53  1  0
 29 54  1  0
 29 55  1  0
 33 56  1  0
 33 57  1  0
 38 58  1  0
 39 59  1  0
 40 60  1  0
M  END
> <Name>
CHEMBL5273844

> <IC50 nM>
30000

> <Molecule_ChEMBL_ID>
CHEMBL5273844

> <Smiles>
N#Cc1ccc(S(=O)(=O)N(c2ccc3c(c2)CCCN3C(=O)c2ccco2)S(=O)(=O)c2ccc(C#N)cc2)cc1

$$$$
CHEMBL457241
  SciTegic08162514323D

 46 48  0  0  1  0            999 V2000
   -4.6370   -3.3850   -0.4800 O   0  0
   -3.6370   -2.4920   -0.4140 C   0  0
   -3.1210   -2.1040    0.8420 C   0  0
   -3.1000   -1.9410   -1.5960 C   0  0
   -2.0670   -1.1580    0.9280 C   0  0
   -2.0530   -0.9960   -1.5210 C   0  0
   -1.5140   -0.5900   -0.2680 C   0  0
   -1.5680   -0.7970    2.2810 C   0  0
   -0.4120    0.4360   -0.2110 C   0  0  1  0  0  0
   -0.6660    0.4410    2.3130 C   0  0
    0.3320    0.3910    1.1520 C   0  0  2  0  0  0
    0.6580    0.2500   -1.3240 C   0  0
   -1.0820    1.8070   -0.3940 C   0  0
    1.4220    1.4770    1.2660 C   0  0
    1.7750    1.3160   -1.2460 C   0  0  1  0  0  0
   -1.8580    1.9280   -1.7070 C   0  0
    2.4800    1.3570    0.1430 C   0  0  1  0  0  0
    2.6950    1.1020   -2.3070 O   0  0
    3.3030    2.5080    0.2090 O   0  0
    3.3320    0.1780    0.3670 C   0  0
    4.0140   -0.7810    0.5410 C   0  0
    4.8460   -1.9630    0.7440 C   0  0
   -4.9960   -3.7540    0.3360 H   0  0
   -3.5370   -2.5310    1.7400 H   0  0
   -3.4920   -2.2380   -2.5570 H   0  0
   -1.6800   -0.5900   -2.4490 H   0  0
   -2.4060   -0.6440    2.9630 H   0  0
   -1.0100   -1.6500    2.6680 H   0  0
   -1.2680    1.3500    2.2540 H   0  0
   -0.1410    0.4840    3.2680 H   0  0
    0.8400   -0.5740    1.2320 H   0  0
    1.0940   -0.7500   -1.2560 H   0  0
    0.2090    0.3180   -2.3140 H   0  0
   -1.7270    2.0290    0.4550 H   0  0
   -0.3480    2.6080   -0.3070 H   0  0
    0.9430    2.4550    1.2270 H   0  0
    1.8960    1.4240    2.2480 H   0  0
    1.3240    2.2890   -1.4430 H   0  0
   -2.1930    2.9530   -1.8630 H   0  0
   -1.2360    1.6230   -2.5510 H   0  0
   -2.7380    1.2870   -1.6930 H   0  0
    2.2190    1.2720   -3.1350 H   0  0
    3.9240    2.4610   -0.5350 H   0  0
    4.4430   -2.8090    0.1880 H   0  0
    5.8630   -1.7710    0.4040 H   0  0
    4.8750   -2.2250    1.8030 H   0  0
  1  2  1  0
  2  3  2  0
  2  4  1  0
  3  5  1  0
  4  6  2  0
  5  7  2  0
  5  8  1  0
  7  9  1  0
  8 10  1  0
  9 11  1  0
  9 12  1  0
  9 13  1  0
 11 14  1  0
 12 15  1  0
 13 16  1  0
 14 17  1  0
 15 18  1  0
 17 19  1  0
 17 20  1  0
 20 21  3  0
 21 22  1  0
  6  7  1  0
 10 11  1  0
 15 17  1  0
  1 23  1  0
  3 24  1  0
  4 25  1  0
  6 26  1  0
  8 27  1  0
  8 28  1  0
 10 29  1  0
 10 30  1  0
 11 31  1  0
 12 32  1  0
 12 33  1  0
 13 34  1  0
 13 35  1  0
 14 36  1  0
 14 37  1  0
 15 38  1  0
 16 39  1  0
 16 40  1  0
 16 41  1  0
 18 42  1  0
 19 43  1  0
 22 44  1  0
 22 45  1  0
 22 46  1  0
M  END
> <Name>
CHEMBL457241

> <IC50 nM>
63

> <Molecule_ChEMBL_ID>
CHEMBL457241

> <Smiles>
CC#C[C@]1(O)C[C@H]2CCc3cc(O)ccc3[C@]2(CC)C[C@@H]1O

$$$$
CHEMBL5279620
  SciTegic08162514323D

 51 55  0  0  0  0            999 V2000
    2.5510   -0.0610    0.5490 S   0  0
    2.7110    0.6460   -0.7090 O   0  0
    2.5230    0.8200    1.7030 O   0  0
    1.1270   -0.8340    0.4920 N   0  0
    3.8610   -1.1450    0.7290 C   0  0
   -0.0100   -0.1350    0.3560 C   0  0
    4.1020   -2.1290   -0.2600 C   0  0
    4.7030   -1.0550    1.8630 C   0  0
   -1.2580   -0.7990    0.3050 C   0  0
    0.0230    1.2730    0.2580 C   0  0
    5.1890   -3.0270   -0.1110 C   0  0
    5.7890   -1.9470    2.0200 C   0  0
   -2.4670   -0.0700    0.1600 C   0  0
   -1.1720    2.0120    0.1130 C   0  0
    6.0370   -2.9380    1.0350 C   0  0
    5.4380   -4.0140   -1.1000 C   0  0
   -2.4400    1.3570    0.0630 C   0  0
   -3.7480   -0.8220    0.1090 C   0  0
    7.1210   -3.8380    1.1840 C   0  0
    6.5230   -4.9080   -0.9430 C   0  0
   -3.6060    2.0720   -0.0760 N   0  0
   -4.9300    0.0390    0.5700 C   0  0
    7.3610   -4.8200    0.1930 C   0  0
   -3.6130    3.4450   -0.1520 C   0  0
   -4.9300    1.3910   -0.1560 C   0  0
   -2.7420    4.0920    0.3770 O   0  0
   -4.6880    4.1070   -0.8790 C   0  0
   -5.1310    5.3070   -0.4060 O   0  0
   -5.3560    3.6820   -2.0290 C   0  0
   -6.1130    5.6480   -1.2910 C   0  0
   -6.2850    4.6890   -2.2970 C   0  0
    1.0960   -1.8300    0.5630 H   0  0
    3.4490   -2.1860   -1.1210 H   0  0
    4.5160   -0.3010    2.6130 H   0  0
   -1.3010   -1.8770    0.3790 H   0  0
    0.9630    1.8090    0.2910 H   0  0
    6.4180   -1.8630    2.8950 H   0  0
   -1.0860    3.0860    0.0430 H   0  0
    4.8090   -4.0960   -1.9750 H   0  0
   -3.9120   -1.1520   -0.9160 H   0  0
   -3.6950   -1.7190    0.7270 H   0  0
    7.7730   -3.7890    2.0450 H   0  0
    6.7110   -5.6580   -1.6950 H   0  0
   -4.8710    0.2010    1.6470 H   0  0
   -5.8690   -0.4840    0.3890 H   0  0
    8.1860   -5.5080    0.3070 H   0  0
   -5.1800    1.2460   -1.2090 H   0  0
   -5.7070    2.0270    0.2680 H   0  0
   -5.1900    2.7730   -2.5920 H   0  0
   -6.6880    6.5630   -1.2130 H   0  0
   -6.9920    4.7210   -3.1130 H   0  0
  1  2  2  0
  1  3  2  0
  1  4  1  0
  1  5  1  0
  4  6  1  0
  5  7  2  0
  5  8  1  0
  6  9  2  0
  6 10  1  0
  7 11  1  0
  8 12  2  0
  9 13  1  0
 10 14  2  0
 11 15  1  0
 11 16  2  0
 13 17  2  0
 13 18  1  0
 15 19  2  0
 16 20  1  0
 17 21  1  0
 18 22  1  0
 19 23  1  0
 21 24  1  0
 21 25  1  0
 24 26  2  0
 24 27  1  0
 27 28  1  0
 27 29  2  0
 28 30  1  0
 29 31  1  0
 12 15  1  0
 14 17  1  0
 20 23  2  0
 22 25  1  0
 30 31  2  0
  4 32  1  0
  7 33  1  0
  8 34  1  0
  9 35  1  0
 10 36  1  0
 12 37  1  0
 14 38  1  0
 16 39  1  0
 18 40  1  0
 18 41  1  0
 19 42  1  0
 20 43  1  0
 22 44  1  0
 22 45  1  0
 23 46  1  0
 25 47  1  0
 25 48  1  0
 29 49  1  0
 30 50  1  0
 31 51  1  0
M  END
> <Name>
CHEMBL5279620

> <IC50 nM>
1120

> <Molecule_ChEMBL_ID>
CHEMBL5279620

> <Smiles>
O=C(c1ccco1)N1CCCc2cc(NS(=O)(=O)c3ccc4ccccc4c3)ccc21

$$$$
CHEMBL537949
  SciTegic08162514323D

146152  0  0  1  0            999 V2000
   -0.6190    2.9670    4.3610 S   0  0
   -0.7520    1.3130    4.6130 C   0  0
   -1.9240    0.6170    4.5200 N   0  0
    0.3030    0.5040    4.9360 N   0  0
   -3.1620    1.3360    4.1800 C   0  0
    1.6430    1.0880    5.0760 C   0  0
   -4.3540    0.3790    4.1270 C   0  0
    2.6720    0.0180    5.4380 C   0  0
   -5.8810    1.2640    3.7070 S   0  0
    4.0840    0.5860    5.5980 C   0  0
   -7.0290   -0.1410    3.7360 C   0  0
    5.0430   -0.4860    5.8070 N   0  0
   -8.4180    0.3420    3.4080 C   0  0
    6.3910   -0.0250    5.5250 C   0  0
    4.9510   -0.9920    7.1660 C   0  0
   -8.6450    1.5160    3.2360 O   0  0
   -9.5220   -0.6870    3.3030 C   0  0  2  0  0  0
    6.6700   -0.0700    4.0230 C   0  0
   -9.4180   -1.2750    2.0140 O   0  0
  -10.9430   -0.1210    3.5330 C   0  0  2  0  0  0
   -9.4610   -1.7790    4.3990 C   0  0  1  0  0  0
    8.1000    0.3440    3.6760 C   0  0
  -11.7700   -1.4100    3.6620 C   0  0  1  0  0  0
  -11.5820    0.7170    2.4100 C   0  0
  -10.9080    0.6540    4.8630 C   0  0
  -10.9040   -2.2830    4.5720 C   0  0
   -8.4730   -2.9180    4.1470 C   0  0
    8.3260    0.2870    2.2250 N   0  0
  -13.2070   -1.1270    4.1310 C   0  0  1  0  0  0
  -13.0670    1.0510    2.7110 C   0  0  1  0  0  0
    9.5510    0.6250    1.7230 C   0  0
  -13.9300   -0.1930    3.1150 C   0  0  1  0  0  0
  -13.9810   -2.4490    4.3220 C   0  0
  -13.1130    2.0610    3.7010 O   0  0
   10.4420    0.9690    2.4670 O   0  0
    9.7660    0.5630    0.2340 C   0  0
  -14.0610   -0.9100    1.9410 F   0  0
  -15.3850    0.1270    3.6090 C   0  0  2  0  0  0
  -15.4260   -2.2050    4.7750 C   0  0
   11.1960    0.9280   -0.1640 C   0  0
  -16.1430   -1.1660    3.9320 C   0  0
  -16.1210    1.0140    2.6110 C   0  0
  -15.3810    0.9000    4.9380 C   0  0
   11.3690    0.8580   -1.6230 N   0  0
  -17.4030   -1.3890    3.5020 C   0  0
  -17.3790    0.7680    2.1990 C   0  0
   12.5880    1.1520   -2.1680 C   0  0
  -18.1100   -0.4120    2.6700 C   0  0
   13.5140    1.4670   -1.4570 O   0  0
   12.7640    1.0840   -3.6110 C   0  0
  -19.2740   -0.5720    2.3770 O   0  0
   13.9240    1.3520   -4.2830 N   0  0
   11.7640    0.7330   -4.5250 C   0  0
   13.6700    1.1740   -5.6080 C   0  0
   15.2090    1.7580   -3.6930 C   0  0
   12.3400    0.7890   -5.7910 C   0  0
   11.6760    0.5000   -7.0700 N   0  0
   10.3600    0.1330   -7.0900 C   0  0
    9.7370    0.0430   -6.0590 O   0  0
    9.7110   -0.1500   -8.3630 C   0  0
    8.4080   -0.5250   -8.5240 N   0  0
   10.3360   -0.0780   -9.6130 C   0  0
    8.2010   -0.6910   -9.8600 C   0  0
    7.4080   -0.7170   -7.4610 C   0  0
    9.3770   -0.4220  -10.5610 C   0  0
    9.5670   -0.4880  -12.0180 N   0  0
   10.7830   -0.1930  -12.5630 C   0  0
   11.7090    0.1210  -11.8540 O   0  0
   10.9590   -0.2620  -14.0060 C   0  0
    9.9810   -0.6050  -14.8910 N   0  0
   12.1210    0.0080  -14.6720 N   0  0
   10.5310   -0.5530  -16.1210 C   0  0
   11.8620   -0.1720  -15.9870 C   0  0
   13.4080    0.4120  -14.0860 C   0  0
   -1.9390   -0.3690    4.6800 H   0  0
    0.1540   -0.4750    5.0700 H   0  0
   -3.3320    2.1230    4.9140 H   0  0
   -3.0310    1.8420    3.2230 H   0  0
    1.6150    1.8690    5.8380 H   0  0
    1.9160    1.5880    4.1470 H   0  0
   -4.1800   -0.4120    3.3970 H   0  0
   -4.4790   -0.1330    5.0800 H   0  0
    2.6620   -0.7890    4.7050 H   0  0
    2.3690   -0.5190    6.3380 H   0  0
    4.1270    1.2810    6.4360 H   0  0
    4.3690    1.1600    4.7170 H   0  0
   -6.7130   -0.8830    3.0040 H   0  0
   -7.0200   -0.5980    4.7250 H   0  0
    7.1080   -0.6410    6.0700 H   0  0
    6.5160    0.9860    5.9100 H   0  0
    3.9670   -1.3750    7.4380 H   0  0
    5.2010   -0.1950    7.8670 H   0  0
    5.6720   -1.7970    7.3050 H   0  0
    5.9490    0.5390    3.4790 H   0  0
    6.4470   -1.0590    3.6190 H   0  0
   -8.5220   -1.6410    1.9380 H   0  0
   -9.1740   -1.3140    5.3300 H   0  0
    8.8210   -0.3010    4.1780 H   0  0
    8.3050    1.3540    4.0310 H   0  0
  -11.8220   -1.8980    2.6990 H   0  0
  -11.5410    0.1620    1.4710 H   0  0
  -11.0040    1.6290    2.2460 H   0  0
  -11.9100    0.8560    5.2420 H   0  0
  -10.3990    1.6090    4.7400 H   0  0
  -10.3730    0.0880    5.6250 H   0  0
  -11.0220   -3.3280    4.3160 H   0  0
  -11.2130   -2.1800    5.6040 H   0  0
   -8.4690   -3.6150    4.9840 H   0  0
   -8.7290   -3.4570    3.2340 H   0  0
   -7.4610   -2.5290    4.0310 H   0  0
    7.5920    0.0040    1.6090 H   0  0
  -13.1680   -0.6230    5.1000 H   0  0
  -13.4830    1.5100    1.8140 H   0  0
  -13.9830   -3.0230    3.3930 H   0  0
  -13.4810   -3.0740    5.0630 H   0  0
  -13.4470    2.8650    3.2730 H   0  0
    9.6080   -0.4570   -0.1190 H   0  0
    9.0470    1.2070   -0.2710 H   0  0
  -15.9710   -3.1480    4.7700 H   0  0
  -15.4220   -1.8630    5.8130 H   0  0
   11.9120    0.2620    0.3140 H   0  0
   11.4480    1.9320    0.1800 H   0  0
  -15.6210    1.8870    2.2110 H   0  0
  -16.3360    0.8220    5.4550 H   0  0
  -15.1780    1.9570    4.7660 H   0  0
  -14.6080    0.5180    5.6040 H   0  0
   10.6060    0.5980   -2.2110 H   0  0
  -17.9080   -2.3030    3.7750 H   0  0
  -17.8480    1.4510    1.5100 H   0  0
   10.7420    0.4670   -4.2910 H   0  0
   14.4160    1.3180   -6.3770 H   0  0
   15.1980    1.8420   -2.6070 H   0  0
   15.5080    2.7230   -4.1000 H   0  0
   15.9770    1.0310   -3.9630 H   0  0
   12.1920    0.5740   -7.9240 H   0  0
   11.3670    0.1930   -9.8050 H   0  0
    7.2480   -0.9900  -10.2760 H   0  0
    7.7830   -0.5310   -6.4550 H   0  0
    7.0350   -1.7400   -7.4940 H   0  0
    6.5650   -0.0490   -7.6310 H   0  0
    8.8010   -0.7480  -12.6060 H   0  0
    9.9920   -0.7750  -17.0320 H   0  0
   12.5920   -0.0330  -16.7720 H   0  0
   13.3990    0.4980  -12.9980 H   0  0
   13.7050    1.3790  -14.4920 H   0  0
   14.1760   -0.3120  -14.3560 H   0  0
  1  2  2  0
  2  3  1  0
  2  4  1  0
  3  5  1  0
  4  6  1  0
  5  7  1  0
  6  8  1  0
  7  9  1  0
  8 10  1  0
  9 11  1  0
 10 12  1  0
 11 13  1  0
 12 14  1  0
 12 15  1  0
 13 16  2  0
 13 17  1  0
 14 18  1  0
 17 19  1  0
 17 20  1  0
 17 21  1  0
 18 22  1  0
 20 23  1  0
 20 24  1  0
 20 25  1  0
 21 26  1  0
 21 27  1  0
 22 28  1  0
 23 29  1  0
 24 30  1  0
 28 31  1  0
 29 32  1  0
 29 33  1  0
 30 34  1  0
 31 35  2  0
 31 36  1  0
 32 37  1  0
 32 38  1  0
 33 39  1  0
 36 40  1  0
 38 41  1  0
 38 42  1  0
 38 43  1  0
 40 44  1  0
 41 45  2  0
 42 46  2  0
 44 47  1  0
 45 48  1  0
 47 49  2  0
 47 50  1  0
 48 51  2  0
 50 52  1  0
 50 53  2  0
 52 54  1  0
 52 55  1  0
 53 56  1  0
 56 57  1  0
 57 58  1  0
 58 59  2  0
 58 60  1  0
 60 61  1  0
 60 62  2  0
 61 63  1  0
 61 64  1  0
 62 65  1  0
 65 66  1  0
 66 67  1  0
 67 68  2  0
 67 69  1  0
 69 70  2  0
 69 71  1  0
 70 72  1  0
 71 73  1  0
 71 74  1  0
 23 26  1  0
 30 32  1  0
 39 41  1  0
 46 48  1  0
 54 56  2  0
 63 65  2  0
 72 73  2  0
  3 75  1  0
  4 76  1  0
  5 77  1  0
  5 78  1  0
  6 79  1  0
  6 80  1  0
  7 81  1  0
  7 82  1  0
  8 83  1  0
  8 84  1  0
 10 85  1  0
 10 86  1  0
 11 87  1  0
 11 88  1  0
 14 89  1  0
 14 90  1  0
 15 91  1  0
 15 92  1  0
 15 93  1  0
 18 94  1  0
 18 95  1  0
 19 96  1  0
 21 97  1  0
 22 98  1  0
 22 99  1  0
 23100  1  0
 24101  1  0
 24102  1  0
 25103  1  0
 25104  1  0
 25105  1  0
 26106  1  0
 26107  1  0
 27108  1  0
 27109  1  0
 27110  1  0
 28111  1  0
 29112  1  0
 30113  1  0
 33114  1  0
 33115  1  0
 34116  1  0
 36117  1  0
 36118  1  0
 39119  1  0
 39120  1  0
 40121  1  0
 40122  1  0
 42123  1  0
 43124  1  0
 43125  1  0
 43126  1  0
 44127  1  0
 45128  1  0
 46129  1  0
 53130  1  0
 54131  1  0
 55132  1  0
 55133  1  0
 55134  1  0
 57135  1  0
 62136  1  0
 63137  1  0
 64138  1  0
 64139  1  0
 64140  1  0
 66141  1  0
 72142  1  0
 73143  1  0
 74144  1  0
 74145  1  0
 74146  1  0
M  END
> <Name>
CHEMBL537949

> <IC50 nM>
12

> <Molecule_ChEMBL_ID>
CHEMBL537949

> <Smiles>
C[C@@H]1C[C@H]2[C@@H]3CCC4=CC(=O)C=C[C@]4(C)[C@@]3(F)[C@@H](O)C[C@]2(C)[C@@]1(O)C(=O)CSCCNC(=S)NCCCN(C)CCCNC(=O)CCNC(=O)c1cc(NC(=O)c2cc(NC(=O)c3nccn3C)cn2C)cn1C

$$$$
CHEMBL1086071
  SciTegic08162514323D

 38 41  0  0  0  0            999 V2000
    4.8560    6.0980   -0.6060 F   0  0
    4.3670    4.8630   -0.5100 C   0  0
    3.2330    4.4960   -1.2520 C   0  0
    4.9890    3.9240    0.3340 C   0  0
    2.7150    3.1910   -1.1520 C   0  0
    4.4750    2.6190    0.4360 C   0  0
    3.3360    2.2500   -0.3090 C   0  0
    2.8380    0.9900   -0.2110 N   0  0
    3.5880   -0.1660   -0.1880 N   0  0
    1.5310    0.6350   -0.1210 C   0  0
    2.8560   -1.3300   -0.0820 C   0  0
    1.6040   -0.7420   -0.0470 C   0  0
    0.3090    1.3460   -0.0940 C   0  0
    0.4060   -1.4960    0.0600 C   0  0
   -0.8890    0.5960    0.0140 C   0  0
   -0.8480   -0.8240    0.0920 C   0  0
   -2.0840   -1.5880    0.2030 C   0  0
   -2.2420   -2.7830   -0.5230 C   0  0
   -3.1230   -1.1290    1.0350 C   0  0
   -3.4350   -3.5180   -0.4160 C   0  0
   -4.3140   -1.8650    1.1410 C   0  0
   -4.4730   -3.0610    0.4160 C   0  0
   -5.7320   -3.8380    0.5290 C   0  0
   -6.5880   -3.2010    1.3910 F   0  0
   -5.4550   -5.0920    1.0080 F   0  0
   -6.3200   -3.9400   -0.7050 F   0  0
    2.7520    5.2130   -1.9000 H   0  0
    5.8620    4.2030    0.9060 H   0  0
    1.8420    2.9300   -1.7320 H   0  0
    4.9650    1.9120    1.0900 H   0  0
    3.2070   -2.3540   -0.0450 H   0  0
    0.2850    2.4240   -0.1520 H   0  0
    0.4490   -2.5760    0.1190 H   0  0
   -1.8340    1.1210    0.0350 H   0  0
   -1.4530   -3.1490   -1.1660 H   0  0
   -3.0170   -0.2130    1.5980 H   0  0
   -3.5510   -4.4360   -0.9750 H   0  0
   -5.1070   -1.5100    1.7810 H   0  0
  1  2  1  0
  2  3  2  0
  2  4  1  0
  3  5  1  0
  4  6  2  0
  5  7  2  0
  7  8  1  0
  8  9  1  0
  8 10  1  0
  9 11  2  0
 10 12  1  0
 10 13  2  0
 12 14  2  0
 13 15  1  0
 14 16  1  0
 16 17  1  0
 17 18  2  0
 17 19  1  0
 18 20  1  0
 19 21  2  0
 20 22  2  0
 22 23  1  0
 23 24  1  0
 23 25  1  0
 23 26  1  0
  6  7  1  0
 11 12  1  0
 15 16  2  0
 21 22  1  0
  3 27  1  0
  4 28  1  0
  5 29  1  0
  6 30  1  0
 11 31  1  0
 13 32  1  0
 14 33  1  0
 15 34  1  0
 18 35  1  0
 19 36  1  0
 20 37  1  0
 21 38  1  0
M  END
> <Name>
CHEMBL1086071

> <IC50 nM>
10000

> <Molecule_ChEMBL_ID>
CHEMBL1086071

> <Smiles>
Fc1ccc(-n2ncc3cc(-c4ccc(C(F)(F)F)cc4)ccc32)cc1

$$$$
CHEMBL197552
  SciTegic08162514323D

 65 69  0  0  1  0            999 V2000
    1.1490   -7.1390   -3.0160 O   0  0
    1.6500   -6.0370   -3.0350 C   0  0
    2.7270   -5.6370   -3.7540 O   0  0
    1.1720   -4.9080   -2.2620 C   0  0
    3.0200   -4.2290   -3.4940 C   0  0
    1.9590   -3.8010   -2.5020 C   0  0
    0.0700   -4.8670   -1.3730 C   0  0
    1.6560   -2.5840   -1.8380 C   0  0
   -0.2340   -3.6540   -0.7110 C   0  0
    0.5610   -2.5000   -0.9390 C   0  0
    0.2790   -1.3480   -0.3160 N   0  0
    1.2910   -0.5700    0.1720 C   0  0
    2.4420   -0.9160    0.0430 O   0  0
    0.9410    0.7190    0.8670 C   0  0  1  0  0  0
   -0.0820    1.3750    0.1520 O   0  0
    0.4590    0.4960    2.3010 C   0  0
    2.2030    1.5800    0.7950 C   0  0
   -0.8670   -0.1390    2.3320 C   0  0
    2.3090    2.3630   -0.5140 C   0  0
   -2.0330    0.6640    2.3220 C   0  0
   -0.9750   -1.5490    2.3750 C   0  0
    1.2750    3.4280   -0.6000 C   0  0
    3.7130    2.9220   -0.7560 C   0  0
    1.7700    1.5840   -1.7130 C   0  0
   -3.3120    0.0530    2.3520 C   0  0
   -2.2460   -2.1680    2.4080 C   0  0
    0.9880    4.0330   -1.8380 C   0  0
    0.5800    3.8300    0.5550 C   0  0
   -3.4200   -1.3710    2.3990 C   0  0
   -4.4840    0.8500    2.3380 C   0  0
    0.0100    5.0390   -1.9180 C   0  0
   -0.3980    4.8360    0.4730 C   0  0
   -4.6990   -1.9820    2.4320 C   0  0
   -5.7560    0.2300    2.3710 C   0  0
   -0.6840    5.4400   -0.7640 C   0  0
   -5.8630   -1.1800    2.4180 C   0  0
    4.0140   -4.1370   -3.0800 H   0  0
    2.9470   -3.6700   -4.4180 H   0  0
   -0.5310   -5.7480   -1.1990 H   0  0
    2.2790   -1.7230   -2.0290 H   0  0
   -1.0760   -3.6230   -0.0350 H   0  0
   -0.6720   -1.0570   -0.2070 H   0  0
   -0.8870    0.8420    0.2520 H   0  0
    0.4260    1.4390    2.8460 H   0  0
    1.1700   -0.1170    2.8540 H   0  0
    2.2600    2.2520    1.6520 H   0  0
    3.0940    0.9730    0.9530 H   0  0
   -1.9370    1.7400    2.2890 H   0  0
   -0.0840   -2.1620    2.3830 H   0  0
    3.7680    3.4940   -1.6820 H   0  0
    4.4420    2.1150   -0.8180 H   0  0
    4.0120    3.5780    0.0610 H   0  0
    2.2290    1.9340   -2.6390 H   0  0
    1.9670    0.5180   -1.6000 H   0  0
    0.6910    1.7150   -1.8050 H   0  0
   -2.3070   -3.2480    2.4410 H   0  0
    1.5200    3.7290   -2.7290 H   0  0
    0.7950    3.3690    1.5080 H   0  0
   -4.4240    1.9280    2.3010 H   0  0
   -0.2090    5.5040   -2.8690 H   0  0
   -0.9320    5.1430    1.3590 H   0  0
   -4.8030   -3.0590    2.4690 H   0  0
   -6.6480    0.8380    2.3590 H   0  0
   -1.4360    6.2130   -0.8260 H   0  0
   -6.8380   -1.6430    2.4450 H   0  0
  1  2  2  0
  2  3  1  0
  2  4  1  0
  3  5  1  0
  4  6  2  0
  4  7  1  0
  6  8  1  0
  7  9  2  0
  8 10  2  0
 10 11  1  0
 11 12  1  0
 12 13  2  0
 12 14  1  0
 14 15  1  0
 14 16  1  0
 14 17  1  0
 16 18  1  0
 17 19  1  0
 18 20  2  0
 18 21  1  0
 19 22  1  0
 19 23  1  0
 19 24  1  0
 20 25  1  0
 21 26  2  0
 22 27  2  0
 22 28  1  0
 25 29  1  0
 25 30  2  0
 27 31  1  0
 28 32  2  0
 29 33  2  0
 30 34  1  0
 31 35  2  0
 33 36  1  0
  5  6  1  0
  9 10  1  0
 26 29  1  0
 32 35  1  0
 34 36  2  0
  5 37  1  0
  5 38  1  0
  7 39  1  0
  8 40  1  0
  9 41  1  0
 11 42  1  0
 15 43  1  0
 16 44  1  0
 16 45  1  0
 17 46  1  0
 17 47  1  0
 20 48  1  0
 21 49  1  0
 23 50  1  0
 23 51  1  0
 23 52  1  0
 24 53  1  0
 24 54  1  0
 24 55  1  0
 26 56  1  0
 27 57  1  0
 28 58  1  0
 30 59  1  0
 31 60  1  0
 32 61  1  0
 33 62  1  0
 34 63  1  0
 35 64  1  0
 36 65  1  0
M  END
> <Name>
CHEMBL197552

> <IC50 nM>
110

> <Molecule_ChEMBL_ID>
CHEMBL197552

> <Smiles>
CC(C)(CC(O)(Cc1ccc2ccccc2c1)C(=O)Nc1ccc2c(c1)COC2=O)c1ccccc1

$$$$
CHEMBL195962
  SciTegic08162514323D

 69 72  0  0  1  0            999 V2000
   -0.4540    7.4970    1.5840 F   0  0
    0.1880    6.3300    1.5840 C   0  0
   -0.5400    5.1270    1.5740 C   0  0
    1.5920    6.3000    1.5950 C   0  0
    0.1370    3.8940    1.5730 C   0  0
    2.2690    5.0690    1.5950 C   0  0
    1.5460    3.8630    1.5840 C   0  0
   -0.6420    2.6280    1.5620 C   0  0
    2.1910    2.7130    1.5840 O   0  0
   -0.5130    2.4300    0.0510 C   0  0
   -2.0880    2.8530    2.0060 C   0  0
    0.0570    1.5290    2.3630 C   0  0
   -1.0140    1.0600   -0.4090 C   0  0  2  0  0  0
   -2.0820    0.6770    0.4280 O   0  0
    0.1420    0.1170   -0.2120 C   0  0
   -1.5180    1.0720   -1.8530 C   0  0
    1.2710    0.4510   -0.4830 O   0  0
   -0.1080   -1.1320    0.2820 N   0  0
   -1.7270   -0.3370   -2.4170 C   0  0
    0.8980   -2.0020    0.4450 C   0  0
   -3.0660   -0.4410   -3.1680 C   0  0
   -0.5530   -0.7530   -3.3200 C   0  0
    0.9420   -2.8400    1.5910 C   0  0
    1.9300   -2.0940   -0.5260 C   0  0
   -3.2750   -1.8340   -3.7820 C   0  0
   -0.7620   -2.1450   -3.9340 C   0  0
    2.0100   -3.7580    1.7590 C   0  0
    2.9960   -3.0110   -0.3610 C   0  0
   -2.0990   -2.2340   -4.6830 C   0  0
    3.0280   -3.8390    0.7860 C   0  0
    2.0940   -4.6540    2.9490 C   0  0
    4.1210   -4.8230    1.0190 C   0  0
    3.0790   -5.4790    3.0730 N   0  0
    1.0410   -4.6210    4.0280 C   0  0
    5.0350   -4.9640    0.2380 O   0  0
    4.1690   -5.6220    2.1110 O   0  0
   -1.6200    5.1510    1.5650 H   0  0
    2.1560    7.2220    1.6030 H   0  0
    3.3490    5.0500    1.6030 H   0  0
    3.1570    2.7130    1.5840 H   0  0
   -1.0240    3.2280   -0.4870 H   0  0
    0.5150    2.5920   -0.2720 H   0  0
   -2.7030    3.2540    1.2000 H   0  0
   -2.1300    3.5550    2.8390 H   0  0
   -2.5400    1.9170    2.3360 H   0  0
    0.8820    1.0840    1.8070 H   0  0
   -0.6430    0.7320    2.6160 H   0  0
    0.4590    1.9280    3.2940 H   0  0
   -2.6040    0.0190   -0.0570 H   0  0
   -0.8470    1.6470   -2.4910 H   0  0
   -2.4320    1.6600   -1.9370 H   0  0
   -1.0410   -1.4010    0.5230 H   0  0
   -1.7610   -1.0270   -1.5730 H   0  0
   -3.8910   -0.2120   -2.4930 H   0  0
   -3.0970    0.3070   -3.9610 H   0  0
    0.3780   -0.7410   -2.7520 H   0  0
   -0.4350   -0.0230   -4.1220 H   0  0
    0.1620   -2.7800    2.3370 H   0  0
    1.9170   -1.4650   -1.4060 H   0  0
   -4.2040   -1.8500   -4.3540 H   0  0
   -3.3910   -2.5700   -2.9860 H   0  0
   -0.7370   -2.8980   -3.1460 H   0  0
    0.0590   -2.3780   -4.6110 H   0  0
    3.7740   -3.0710   -1.1090 H   0  0
   -2.2470   -3.2450   -5.0650 H   0  0
   -2.0700   -1.5770   -5.5530 H   0  0
    1.2510   -5.3880    4.7740 H   0  0
    1.0000   -3.6280    4.4760 H   0  0
    0.0630   -4.8330    3.5980 H   0  0
  1  2  1  0
  2  3  2  0
  2  4  1  0
  3  5  1  0
  4  6  2  0
  5  7  2  0
  5  8  1  0
  7  9  1  0
  8 10  1  0
  8 11  1  0
  8 12  1  0
 10 13  1  0
 13 14  1  0
 13 15  1  0
 13 16  1  0
 15 17  2  0
 15 18  1  0
 16 19  1  0
 18 20  1  0
 19 21  1  0
 19 22  1  0
 20 23  2  0
 20 24  1  0
 21 25  1  0
 22 26  1  0
 23 27  1  0
 24 28  2  0
 25 29  1  0
 27 30  2  0
 27 31  1  0
 30 32  1  0
 31 33  2  0
 31 34  1  0
 32 35  2  0
 32 36  1  0
  6  7  1  0
 26 29  1  0
 28 30  1  0
 33 36  1  0
  3 37  1  0
  4 38  1  0
  6 39  1  0
  9 40  1  0
 10 41  1  0
 10 42  1  0
 11 43  1  0
 11 44  1  0
 11 45  1  0
 12 46  1  0
 12 47  1  0
 12 48  1  0
 14 49  1  0
 16 50  1  0
 16 51  1  0
 18 52  1  0
 19 53  1  0
 21 54  1  0
 21 55  1  0
 22 56  1  0
 22 57  1  0
 23 58  1  0
 24 59  1  0
 25 60  1  0
 25 61  1  0
 26 62  1  0
 26 63  1  0
 28 64  1  0
 29 65  1  0
 29 66  1  0
 34 67  1  0
 34 68  1  0
 34 69  1  0
M  END
> <Name>
CHEMBL195962

> <IC50 nM>
7

> <Molecule_ChEMBL_ID>
CHEMBL195962

> <Smiles>
Cc1noc(=O)c2ccc(NC(=O)C(O)(CC3CCCCC3)CC(C)(C)c3cc(F)ccc3O)cc12

$$$$
CHEMBL197101
  SciTegic08162514323D

 63 66  0  0  1  0            999 V2000
   -1.6450   -3.6290   -5.1150 F   0  0
   -0.6680   -3.5700   -4.2110 C   0  0
   -0.3910   -2.3590   -3.5550 C   0  0
    0.0840   -4.7190   -3.9120 C   0  0
    0.6410   -2.2970   -2.6000 C   0  0
    1.1130   -4.6560   -2.9590 C   0  0
    1.3950   -3.4470   -2.2990 C   0  0
    0.9260   -1.0100   -1.9100 C   0  0
    2.3630   -3.3980   -1.4060 O   0  0
    0.3910   -1.4840   -0.5590 C   0  0
    0.1040    0.1390   -2.4980 C   0  0
    2.4240   -0.7070   -1.8790 C   0  0
    2.9530   -4.6250   -0.9960 C   0  0
    0.5680   -0.4410    0.5450 C   0  0  1  0  0  0
    1.7930    0.2250    0.3320 O   0  0
   -0.5660    0.5310    0.3730 C   0  0
    0.6000   -1.0610    1.9430 C   0  0
   -1.5720    0.2150   -0.2210 O   0  0
   -0.4430    1.7830    0.9020 N   0  0
    1.2340   -0.1500    2.9320 C   0  0
   -1.4390    2.6700    0.7660 C   0  0
    0.4490    0.4770    3.9160 C   0  0
    2.6190    0.0860    2.8830 C   0  0
   -2.7850    2.2310    0.6500 C   0  0
   -1.1660    4.0630    0.7310 C   0  0
    1.0510    1.3380    4.8520 C   0  0
    3.2210    0.9470    3.8180 C   0  0
   -3.8440    3.1620    0.5040 C   0  0
   -2.2230    4.9900    0.5860 C   0  0
    2.4360    1.5720    4.8030 C   0  0
   -3.5510    4.5120    0.4750 C   0  0
   -5.3460    3.0430    0.3560 C   0  0
   -4.7660    5.2830    0.3180 C   0  0
   -5.8130    4.4240    0.2500 O   0  0
   -4.8050    6.4900    0.2660 O   0  0
   -0.9710   -1.4770   -3.7850 H   0  0
   -0.1270   -5.6520   -4.4160 H   0  0
    1.6900   -5.5410   -2.7320 H   0  0
    0.8520   -2.4300   -0.2730 H   0  0
   -0.6520   -1.7830   -0.6410 H   0  0
    0.4260    0.3930   -3.5080 H   0  0
    0.1970    1.0330   -1.8830 H   0  0
   -0.9530   -0.1270   -2.5430 H   0  0
    2.9320   -1.0820   -2.7680 H   0  0
    2.8930   -1.1680   -1.0100 H   0  0
    2.6000    0.3670   -1.8220 H   0  0
    3.8710   -4.3970   -0.4550 H   0  0
    2.2030   -5.1990   -0.4510 H   0  0
    3.2230   -5.1900   -1.8870 H   0  0
    1.7270    1.0900    0.7620 H   0  0
    1.1330   -2.0120    1.9320 H   0  0
   -0.4080   -1.3130    2.2750 H   0  0
    0.3890    2.0390    1.3930 H   0  0
   -0.6150    0.2990    3.9610 H   0  0
    3.2290   -0.3910    2.1290 H   0  0
   -3.0250    1.1760    0.6740 H   0  0
   -0.1520    4.4300    0.8140 H   0  0
    0.4470    1.8180    5.6080 H   0  0
    4.2830    1.1290    3.7790 H   0  0
   -2.0180    6.0510    0.5630 H   0  0
    2.8970    2.2340    5.5220 H   0  0
   -5.7950    2.5760    1.2210 H   0  0
   -5.6150    2.5000   -0.5390 H   0  0
  1  2  1  0
  2  3  2  0
  2  4  1  0
  3  5  1  0
  4  6  2  0
  5  7  2  0
  5  8  1  0
  7  9  1  0
  8 10  1  0
  8 11  1  0
  8 12  1  0
  9 13  1  0
 10 14  1  0
 14 15  1  0
 14 16  1  0
 14 17  1  0
 16 18  2  0
 16 19  1  0
 17 20  1  0
 19 21  1  0
 20 22  2  0
 20 23  1  0
 21 24  2  0
 21 25  1  0
 22 26  1  0
 23 27  2  0
 24 28  1  0
 25 29  2  0
 26 30  2  0
 28 31  2  0
 28 32  1  0
 31 33  1  0
 32 34  1  0
 33 35  2  0
  6  7  1  0
 27 30  1  0
 29 31  1  0
 33 34  1  0
  3 36  1  0
  4 37  1  0
  6 38  1  0
 10 39  1  0
 10 40  1  0
 11 41  1  0
 11 42  1  0
 11 43  1  0
 12 44  1  0
 12 45  1  0
 12 46  1  0
 13 47  1  0
 13 48  1  0
 13 49  1  0
 15 50  1  0
 17 51  1  0
 17 52  1  0
 19 53  1  0
 22 54  1  0
 23 55  1  0
 24 56  1  0
 25 57  1  0
 26 58  1  0
 27 59  1  0
 29 60  1  0
 30 61  1  0
 32 62  1  0
 32 63  1  0
M  END
> <Name>
CHEMBL197101

> <IC50 nM>
52

> <Molecule_ChEMBL_ID>
CHEMBL197101

> <Smiles>
COc1ccc(F)cc1C(C)(C)CC(O)(Cc1ccccc1)C(=O)Nc1ccc2c(c1)COC2=O

$$$$
CHEMBL219561
  SciTegic08162514323D

 57 59  0  0  1  0            999 V2000
    0.7660    1.4160   -3.5570 F   0  0
    0.6990    1.6250   -2.2030 C   0  0
    1.5180    2.6720   -1.8610 F   0  0
   -0.5920    1.9200   -1.8480 F   0  0
    1.1540    0.3630   -1.4710 C   0  0  1  0  0  0
    2.5260    0.1680   -1.7360 O   0  0
    0.9710    0.4610    0.0450 C   0  0
    0.3770   -0.8030   -2.0840 C   0  0
    1.0290    1.8690    0.4960 N   0  0
    0.8590   -2.1620   -1.5800 C   0  0
   -0.1110    2.5880    0.7420 C   0  0
    2.2870    2.4220    0.6560 C   0  0
   -0.0880   -2.1990   -0.4350 C   0  0
    0.5840   -3.2910   -2.5760 C   0  0
    2.3150   -2.1350   -1.1070 C   0  0
   -0.0190    3.9490    1.1760 C   0  0
   -1.4040    2.0140    0.5780 C   0  0
    2.4710    3.6970    1.0610 C   0  0
   -1.4750   -2.3260   -0.6540 C   0  0
    0.4060   -2.1050    0.8770 C   0  0
    1.3220    4.5780    1.3540 C   0  0
   -1.1910    4.7050    1.4360 C   0  0
   -2.5680    2.7740    0.8400 C   0  0
   -2.3550   -2.3570    0.4420 C   0  0
   -2.0210   -2.4260   -2.0350 C   0  0
   -0.4730   -2.1390    1.9730 C   0  0
    1.5630    5.7110    1.7070 O   0  0
   -2.4630    4.1130    1.2680 C   0  0
   -1.8550   -2.2640    1.7520 C   0  0
   -0.0060   -2.0510    3.2010 O   0  0
   -0.9340   -2.1110    4.2760 C   0  0
    3.0140    0.8140   -1.2030 H   0  0
    1.7360   -0.1130    0.5650 H   0  0
    0.0160    0.0290    0.3460 H   0  0
   -0.6910   -0.6860   -1.9120 H   0  0
    0.4140   -0.7580   -3.1720 H   0  0
    3.1780    1.8420    0.4590 H   0  0
    1.4510   -3.9410   -2.7030 H   0  0
    0.3240   -2.8870   -3.5550 H   0  0
   -0.2480   -3.9080   -2.2380 H   0  0
    2.6190   -3.0900   -0.6800 H   0  0
    2.4570   -1.3690   -0.3460 H   0  0
    2.9850   -1.9100   -1.9350 H   0  0
   -1.5290    0.9920    0.2520 H   0  0
    3.4750    4.0780    1.1700 H   0  0
    1.4710   -2.0100    1.0470 H   0  0
   -1.1230    5.7330    1.7620 H   0  0
   -3.5430    2.3240    0.7130 H   0  0
   -3.4200   -2.4550    0.2810 H   0  0
   -2.3810   -3.4180   -2.3030 H   0  0
   -1.2500   -2.1450   -2.7520 H   0  0
   -2.8520   -1.7290   -2.1480 H   0  0
   -3.3530    4.6900    1.4670 H   0  0
   -2.5370   -2.2890    2.5900 H   0  0
   -0.3750   -2.1270    5.2090 H   0  0
   -1.6480   -1.2970    4.1540 H   0  0
   -1.4820   -3.0490    4.1990 H   0  0
  1  2  1  0
  2  3  1  0
  2  4  1  0
  2  5  1  0
  5  6  1  0
  5  7  1  0
  5  8  1  0
  7  9  1  0
  8 10  1  0
  9 11  1  0
  9 12  1  0
 10 13  1  0
 10 14  1  0
 10 15  1  0
 11 16  2  0
 11 17  1  0
 12 18  2  0
 13 19  2  0
 13 20  1  0
 16 21  1  0
 16 22  1  0
 17 23  2  0
 19 24  1  0
 19 25  1  0
 20 26  2  0
 21 27  2  0
 22 28  2  0
 24 29  2  0
 26 30  1  0
 30 31  1  0
 18 21  1  0
 23 28  1  0
 26 29  1  0
  6 32  1  0
  7 33  1  0
  7 34  1  0
  8 35  1  0
  8 36  1  0
 12 37  1  0
 14 38  1  0
 14 39  1  0
 14 40  1  0
 15 41  1  0
 15 42  1  0
 15 43  1  0
 17 44  1  0
 18 45  1  0
 20 46  1  0
 22 47  1  0
 23 48  1  0
 24 49  1  0
 25 50  1  0
 25 51  1  0
 25 52  1  0
 28 53  1  0
 29 54  1  0
 31 55  1  0
 31 56  1  0
 31 57  1  0
M  END
> <Name>
CHEMBL219561

> <IC50 nM>
11

> <Molecule_ChEMBL_ID>
CHEMBL219561

> <Smiles>
COc1ccc(C)c(C(C)(C)CC(O)(Cn2ccc(=O)c3ccccc32)C(F)(F)F)c1

$$$$
CHEMBL219069
  SciTegic08162514323D

 50 52  0  0  1  0            999 V2000
    2.0840    1.6330   -0.3130 F   0  0
    2.2910    0.2850   -0.4550 C   0  0
    2.4380   -0.0160   -1.7850 F   0  0
    3.4240   -0.0780    0.2230 F   0  0
    1.0920   -0.4770    0.1110 C   0  0  1  0  0  0
    1.2250   -1.8340   -0.2420 O   0  0
    1.0000   -0.3830    1.6350 C   0  0
   -0.1480    0.0820   -0.5900 C   0  0
    1.0590    1.0230    2.0840 N   0  0
   -1.0800   -1.0180   -1.1040 C   0  0
   -0.0820    1.7420    2.3300 C   0  0
    2.3160    1.5780    2.2440 C   0  0
   -0.4430   -1.8110   -2.1900 C   0  0
   -1.6050   -1.9160    0.0140 C   0  0
   -2.1930   -0.4770   -2.0000 C   0  0
    0.0100    3.1030    2.7640 C   0  0
   -1.3750    1.1700    2.1680 C   0  0
    2.4980    2.8520    2.6480 C   0  0
   -0.4980   -3.2150   -2.1600 C   0  0
    0.2130   -1.1540   -3.2460 C   0  0
    1.3520    3.7320    2.9430 C   0  0
   -1.1620    3.8590    3.0230 C   0  0
   -2.5390    1.9280    2.4300 C   0  0
    0.1060   -3.9630   -3.1860 C   0  0
    0.8150   -1.9040   -4.2740 C   0  0
    1.5920    4.8650    3.2970 O   0  0
   -2.4340    3.2700    2.8570 C   0  0
    0.7600   -3.3090   -4.2420 C   0  0
    1.4470   -2.3180    0.5680 H   0  0
    1.8070   -0.9450    2.1030 H   0  0
    0.0740   -0.8360    1.9920 H   0  0
   -0.6870    0.7660    0.0660 H   0  0
    0.1350    0.7560   -1.3990 H   0  0
    3.2070    0.9960    2.0470 H   0  0
   -2.3360   -2.6390   -0.3540 H   0  0
   -2.0860   -1.3240    0.7910 H   0  0
   -0.7910   -2.4730    0.4760 H   0  0
   -2.6950   -1.2890   -2.5260 H   0  0
   -2.9280    0.0740   -1.4100 H   0  0
   -1.7910    0.2050   -2.7480 H   0  0
   -1.5000    0.1460    1.8420 H   0  0
    3.5040    3.2340    2.7600 H   0  0
   -1.0000   -3.7250   -1.3500 H   0  0
    0.2580   -0.0760   -3.2760 H   0  0
   -1.0940    4.8870    3.3500 H   0  0
   -3.5140    1.4780    2.3030 H   0  0
    0.0630   -5.0430   -3.1620 H   0  0
    1.3180   -1.4000   -5.0840 H   0  0
   -3.3260    3.8440    3.0570 H   0  0
    1.2230   -3.8850   -5.0310 H   0  0
  1  2  1  0
  2  3  1  0
  2  4  1  0
  2  5  1  0
  5  6  1  0
  5  7  1  0
  5  8  1  0
  7  9  1  0
  8 10  1  0
  9 11  1  0
  9 12  1  0
 10 13  1  0
 10 14  1  0
 10 15  1  0
 11 16  2  0
 11 17  1  0
 12 18  2  0
 13 19  2  0
 13 20  1  0
 16 21  1  0
 16 22  1  0
 17 23  2  0
 19 24  1  0
 20 25  2  0
 21 26  2  0
 22 27  2  0
 24 28  2  0
 18 21  1  0
 23 27  1  0
 25 28  1  0
  6 29  1  0
  7 30  1  0
  7 31  1  0
  8 32  1  0
  8 33  1  0
 12 34  1  0
 14 35  1  0
 14 36  1  0
 14 37  1  0
 15 38  1  0
 15 39  1  0
 15 40  1  0
 17 41  1  0
 18 42  1  0
 19 43  1  0
 20 44  1  0
 22 45  1  0
 23 46  1  0
 24 47  1  0
 25 48  1  0
 27 49  1  0
 28 50  1  0
M  END
> <Name>
CHEMBL219069

> <IC50 nM>
28

> <Molecule_ChEMBL_ID>
CHEMBL219069

> <Smiles>
CC(C)(CC(O)(Cn1ccc(=O)c2ccccc21)C(F)(F)F)c1ccccc1

$$$$
CHEMBL263814
  SciTegic08162514323D

134140  0  0  1  0            999 V2000
  -12.3340   -2.7460   -3.0410 S   0  0
  -11.7360   -1.7580   -2.1580 O   0  0
  -12.5530   -2.2520   -4.3890 O   0  0
  -11.3070   -3.9940   -3.1410 N   0  0
  -13.9010   -3.2620   -2.3520 C   0  0
  -10.0980   -3.8400   -3.7720 C   0  0
   -9.2540   -4.9470   -4.0260 C   0  0
   -9.6990   -2.5490   -4.1700 C   0  0
   -8.0140   -4.7460   -4.6800 C   0  0
   -9.6680   -6.3220   -3.6060 C   0  0
   -8.4710   -2.3570   -4.8190 C   0  0
   -7.1680   -5.7950   -4.9440 N   0  0
   -7.6290   -3.4510   -5.0720 C   0  0
   -6.4880   -6.5120   -3.8560 C   0  0
   -6.9340   -6.2190   -6.3320 C   0  0
   -6.0570   -5.5840   -2.7760 C   0  0
   -8.2090   -6.4100   -7.0690 C   0  0
   -6.7290   -5.5800   -1.5410 C   0  0
   -4.9770   -4.7090   -2.9900 C   0  0
   -8.7150   -5.3790   -7.8810 C   0  0
   -8.9140   -7.6230   -6.9550 C   0  0
   -6.3200   -4.7010   -0.5200 C   0  0
   -4.5680   -3.8320   -1.9690 C   0  0
   -9.9220   -5.5610   -8.5780 C   0  0
  -10.1210   -7.8030   -7.6540 C   0  0
   -5.2400   -3.8260   -0.7340 C   0  0
  -10.6250   -6.7720   -8.4650 C   0  0
   -4.8090   -2.8980    0.3460 C   0  0
   -3.5450   -2.1310   -0.0450 C   0  0
   -3.0590   -1.2300    1.0590 C   0  0
   -3.6290   -1.1860    2.1230 O   0  0
   -1.9510   -0.4610    0.8340 N   0  0
   -1.4630    0.4260    1.9000 C   0  0
   -0.2210    1.1950    1.4470 C   0  0
    0.1970    2.0220    2.5100 O   0  0
    1.3400    2.7950    2.1970 C   0  0  2  0  0  0
    2.6070    1.9100    2.2710 C   0  0
    1.3980    3.9980    3.1600 C   0  0
    3.3200    2.0640    3.6290 C   0  0  2  0  0  0
    2.8280    4.5490    3.2640 C   0  0
    3.8500    3.5180    3.8280 C   0  0  2  0  0  0
    4.3790    0.9770    3.9060 C   0  0
    5.2250    3.7290    3.1210 C   0  0  2  0  0  0
    4.0080    3.7500    5.3400 C   0  0
    5.7250    1.2090    3.2070 C   0  0  2  0  0  0
    6.2580    2.6310    3.4860 C   0  0  1  0  0  0
    5.7990    5.1500    3.3570 C   0  0
    5.5780    0.9790    1.8180 O   0  0
    7.5700    2.9140    2.7340 C   0  0  1  0  0  0
    7.1640    5.4000    2.6780 C   0  0  1  0  0  0
    8.1510    4.2910    3.0920 C   0  0  2  0  0  0
    8.7400    1.9710    3.0120 C   0  0
    6.9810    5.4430    1.2730 O   0  0
    9.4830    4.2030    2.3260 C   0  0  2  0  0  0
    8.4590    4.3870    4.5940 C   0  0
    9.9790    2.7810    2.6190 C   0  0
   10.5000    5.2740    2.7170 C   0  0  1  0  0  0
   11.8210    5.0080    1.9920 C   0  0
    9.9260    6.6560    2.4140 C   0  0
   12.9870    5.8030    2.5820 C   0  0
   14.2890    5.5120    1.8870 C   0  0
   14.3360    4.7500    0.9490 O   0  0
   15.3480    6.1470    2.3810 O   0  0
  -11.5530   -4.8790   -2.7420 H   0  0
  -14.6350   -2.4610   -2.2600 H   0  0
  -13.7420   -3.6820   -1.3590 H   0  0
  -14.3340   -4.0410   -2.9790 H   0  0
  -10.3320   -1.6910   -3.9850 H   0  0
   -9.1290   -7.1250   -4.1060 H   0  0
  -10.7310   -6.4590   -3.8090 H   0  0
   -9.5160   -6.4360   -2.5330 H   0  0
   -8.1700   -1.3650   -5.1210 H   0  0
   -6.6880   -3.2770   -5.5720 H   0  0
   -7.1620   -7.2600   -3.4420 H   0  0
   -5.6170   -7.0310   -4.2560 H   0  0
   -6.3710   -7.1520   -6.3300 H   0  0
   -6.3300   -5.4670   -6.8380 H   0  0
   -7.5590   -6.2480   -1.3690 H   0  0
   -4.4570   -4.7070   -3.9360 H   0  0
   -8.1800   -4.4450   -7.9730 H   0  0
   -8.5310   -8.4200   -6.3340 H   0  0
   -6.8400   -4.7050    0.4260 H   0  0
   -3.7380   -3.1620   -2.1410 H   0  0
  -10.3090   -4.7680   -9.2010 H   0  0
  -10.6600   -8.7340   -7.5670 H   0  0
  -11.5530   -6.9100   -9.0000 H   0  0
   -5.6210   -2.2110    0.5780 H   0  0
   -4.6480   -3.4610    1.2660 H   0  0
   -3.8130   -1.5350   -0.9180 H   0  0
   -2.7520   -2.8180   -0.3400 H   0  0
   -1.4800   -0.4980   -0.0470 H   0  0
   -2.2580    1.1130    2.1890 H   0  0
   -1.2440   -0.1700    2.7890 H   0  0
    0.5920    0.5100    1.2110 H   0  0
   -0.4530    1.8300    0.5940 H   0  0
    1.2110    3.1450    1.1720 H   0  0
    2.3730    0.8630    2.0720 H   0  0
    3.2850    2.2130    1.4750 H   0  0
    0.7170    4.7790    2.8240 H   0  0
    1.0700    3.7190    4.1620 H   0  0
    2.5430    1.8890    4.3730 H   0  0
    3.1210    4.8560    2.2580 H   0  0
    2.8340    5.4630    3.8550 H   0  0
    4.5650    0.9510    4.9800 H   0  0
    3.9810   -0.0100    3.6600 H   0  0
    5.0450    3.6410    2.0470 H   0  0
    3.0880    3.5330    5.8830 H   0  0
    4.2790    4.7850    5.5450 H   0  0
    4.7930    3.1130    5.7480 H   0  0
    6.4430    0.4710    3.5660 H   0  0
    6.4530    2.6930    4.5570 H   0  0
    5.0900    5.9080    3.0210 H   0  0
    5.9120    5.3180    4.4280 H   0  0
    6.4530    0.7380    1.4750 H   0  0
    7.3730    2.8810    1.6700 H   0  0
    7.5530    6.3770    2.9710 H   0  0
    8.6560    1.0530    2.4470 H   0  0
    8.7790    1.7070    4.0590 H   0  0
    6.4490    6.2310    1.0800 H   0  0
    9.2990    4.2830    1.2660 H   0  0
    9.2090    3.6600    4.9020 H   0  0
    7.5610    4.2090    5.1840 H   0  0
    8.8320    5.3790    4.8480 H   0  0
   10.4670    2.3610    1.7500 H   0  0
   10.6950    2.7680    3.4280 H   0  0
   10.6150    5.1310    3.7910 H   0  0
   11.7190    5.2070    0.9260 H   0  0
   12.0470    3.9430    1.9800 H   0  0
   10.7250    7.3650    2.1930 H   0  0
    9.2440    6.6150    1.5640 H   0  0
    9.3690    7.0390    3.2700 H   0  0
   13.0510    5.5080    3.6290 H   0  0
   12.7800    6.8730    2.5490 H   0  0
   16.2150    6.0020    1.9780 H   0  0
  1  2  2  0
  1  3  2  0
  1  4  1  0
  1  5  1  0
  4  6  1  0
  6  7  2  0
  6  8  1  0
  7  9  1  0
  7 10  1  0
  8 11  2  0
  9 12  1  0
  9 13  2  0
 12 14  1  0
 12 15  1  0
 14 16  1  0
 15 17  1  0
 16 18  2  0
 16 19  1  0
 17 20  2  0
 17 21  1  0
 18 22  1  0
 19 23  2  0
 20 24  1  0
 21 25  2  0
 22 26  2  0
 24 27  2  0
 26 28  1  0
 28 29  1  0
 29 30  1  0
 30 31  2  0
 30 32  1  0
 32 33  1  0
 33 34  1  0
 34 35  1  0
 36 35  1  0
 36 37  1  0
 36 38  1  0
 39 37  1  0
 38 40  1  0
 39 41  1  0
 39 42  1  0
 41 43  1  0
 41 44  1  0
 42 45  1  0
 46 43  1  0
 43 47  1  0
 45 48  1  0
 46 49  1  0
 47 50  1  0
 49 51  1  0
 49 52  1  0
 50 53  1  0
 51 54  1  0
 51 55  1  0
 52 56  1  0
 54 57  1  0
 57 58  1  0
 57 59  1  0
 58 60  1  0
 60 61  1  0
 61 62  2  0
 61 63  1  0
 11 13  1  0
 23 26  1  0
 25 27  1  0
 40 41  1  0
 45 46  1  0
 50 51  1  0
 54 56  1  0
  4 64  1  0
  5 65  1  0
  5 66  1  0
  5 67  1  0
  8 68  1  0
 10 69  1  0
 10 70  1  0
 10 71  1  0
 11 72  1  0
 13 73  1  0
 14 74  1  0
 14 75  1  0
 15 76  1  0
 15 77  1  0
 18 78  1  0
 19 79  1  0
 20 80  1  0
 21 81  1  0
 22 82  1  0
 23 83  1  0
 24 84  1  0
 25 85  1  0
 27 86  1  0
 28 87  1  0
 28 88  1  0
 29 89  1  0
 29 90  1  0
 32 91  1  0
 33 92  1  0
 33 93  1  0
 34 94  1  0
 34 95  1  0
 36 96  1  0
 37 97  1  0
 37 98  1  0
 38 99  1  0
 38100  1  0
 39101  1  0
 40102  1  0
 40103  1  0
 42104  1  0
 42105  1  0
 43106  1  0
 44107  1  0
 44108  1  0
 44109  1  0
 45110  1  0
 46111  1  0
 47112  1  0
 47113  1  0
 48114  1  0
 49115  1  0
 50116  1  0
 52117  1  0
 52118  1  0
 53119  1  0
 54120  1  0
 55121  1  0
 55122  1  0
 55123  1  0
 56124  1  0
 56125  1  0
 57126  1  0
 58127  1  0
 58128  1  0
 59129  1  0
 59130  1  0
 59131  1  0
 60132  1  0
 60133  1  0
 63134  1  0
M  END
> <Name>
CHEMBL263814

> <IC50 nM>
560

> <Molecule_ChEMBL_ID>
CHEMBL263814

> <Smiles>
Cc1c(NS(C)(=O)=O)cccc1N(Cc1ccccc1)Cc1ccc(CCC(=O)NCCO[C@H]2CC[C@@]3(C)[C@@H](C2)C[C@@H](O)[C@@H]2[C@@H]3C[C@H](O)[C@]3(C)[C@@H]([C@H](C)CCC(=O)O)CC[C@@H]23)cc1

$$$$
CHEMBL70381
  SciTegic08162514323D

 51 53  0  0  0  0            999 V2000
   -6.5590    0.9820   -0.7970 Cl  0  0
   -4.9470    0.4860   -1.1090 C   0  0
   -3.9100    1.4350   -1.1390 C   0  0
   -4.6600   -0.8730   -1.3400 C   0  0
   -2.5880    1.0290   -1.3980 C   0  0
   -3.3400   -1.2780   -1.5960 C   0  0
   -1.6150    1.9390   -1.4220 F   0  0
   -2.3030   -0.3300   -1.6270 C   0  0
   -0.9080   -0.7740   -1.9020 C   0  0
   -0.1760   -1.0570   -0.6600 N   0  0
    0.4860   -0.0630    0.0140 C   0  0
   -0.1620   -2.4320   -0.1410 C   0  0
    1.7480    0.4080   -0.4260 C   0  0
   -0.1090    0.4940    1.1620 C   0  0
   -0.5720   -2.4830    1.2870 C   0  0
    2.4000    1.4350    0.2970 C   0  0
    2.3870   -0.1780   -1.6450 C   0  0
    0.5430    1.5140    1.8730 C   0  0
   -1.9340   -2.5740    1.6250 C   0  0
    0.4000   -2.4400    2.3010 C   0  0
    3.6250    1.9180   -0.0980 N   0  0
    1.7930    1.9820    1.4430 C   0  0
   -2.3220   -2.6210    2.9750 C   0  0
    0.0120   -2.4880    3.6520 C   0  0
    3.8010    2.5720   -1.5680 S   0  0
   -1.3500   -2.5780    3.9880 C   0  0
    4.5570    1.6310   -2.3770 O   0  0
    2.4730    2.8380   -2.0920 O   0  0
    4.7070    4.1110   -1.4800 C   0  0
   -4.1190    2.4820   -0.9650 H   0  0
   -5.4450   -1.6130   -1.3180 H   0  0
   -3.1270   -2.3220   -1.7710 H   0  0
   -0.9280   -1.6700   -2.5210 H   0  0
   -0.3850    0.0040   -2.4570 H   0  0
    0.8440   -2.8440   -0.2440 H   0  0
   -0.8360   -3.0470   -0.7340 H   0  0
   -1.0720    0.1480    1.5120 H   0  0
    3.4650   -0.2460   -1.4920 H   0  0
    1.9320   -1.1430   -1.8650 H   0  0
    2.2130    0.4760   -2.4960 H   0  0
    0.0820    1.9350    2.7520 H   0  0
   -2.6880   -2.6080    0.8500 H   0  0
    1.4490   -2.3710    2.0490 H   0  0
    4.4060    1.8650    0.5230 H   0  0
    2.2770    2.7690    2.0060 H   0  0
   -3.3690   -2.6920    3.2330 H   0  0
    0.7600   -2.4550    4.4300 H   0  0
   -1.6490   -2.6150    5.0260 H   0  0
    4.8550    4.6000   -2.4430 H   0  0
    5.6880    3.9320   -1.0410 H   0  0
    4.1740    4.8090   -0.8320 H   0  0
  1  2  1  0
  2  3  2  0
  2  4  1  0
  3  5  1  0
  4  6  2  0
  5  7  1  0
  5  8  2  0
  8  9  1  0
  9 10  1  0
 10 11  1  0
 10 12  1  0
 11 13  2  0
 11 14  1  0
 12 15  1  0
 13 16  1  0
 13 17  1  0
 14 18  2  0
 15 19  2  0
 15 20  1  0
 16 21  1  0
 16 22  2  0
 19 23  1  0
 20 24  2  0
 21 25  1  0
 23 26  2  0
 25 27  2  0
 25 28  2  0
 25 29  1  0
  6  8  1  0
 18 22  1  0
 24 26  1  0
  3 30  1  0
  4 31  1  0
  6 32  1  0
  9 33  1  0
  9 34  1  0
 12 35  1  0
 12 36  1  0
 14 37  1  0
 17 38  1  0
 17 39  1  0
 17 40  1  0
 18 41  1  0
 19 42  1  0
 20 43  1  0
 21 44  1  0
 22 45  1  0
 23 46  1  0
 24 47  1  0
 26 48  1  0
 29 49  1  0
 29 50  1  0
 29 51  1  0
M  END
> <Name>
CHEMBL70381

> <IC50 nM>
5.7

> <Molecule_ChEMBL_ID>
CHEMBL70381

> <Smiles>
Cc1c(NS(C)(=O)=O)cccc1N(Cc1ccccc1)Cc1ccc(Cl)cc1F

$$$$
CHEMBL181493
  SciTegic08162514323D

 79 82  0  0  0  0            999 V2000
    4.3630   -3.7500    1.6210 S   0  0
    3.3280   -3.1660    2.4530 O   0  0
    4.0940   -5.1290    1.2520 O   0  0
    4.4330   -2.8870    0.2520 N   0  0
    5.9200   -3.6820    2.5000 C   0  0
    3.3360   -2.8110   -0.5680 C   0  0
    3.3670   -2.0650   -1.7710 C   0  0
    2.1600   -3.4900   -0.1950 C   0  0
    2.2130   -2.0120   -2.5900 C   0  0
    4.6110   -1.3400   -2.1760 C   0  0
    1.0210   -3.4340   -1.0100 C   0  0
    2.2050   -1.3010   -3.7640 N   0  0
    1.0450   -2.6970   -2.2030 C   0  0
    2.3010    0.1660   -3.7600 C   0  0
    2.0990   -2.0040   -5.0510 C   0  0
    1.8030    0.7440   -2.4840 C   0  0
    2.8890   -3.2640   -5.0510 C   0  0
    2.6890    1.4120   -1.6210 C   0  0
    0.4450    0.6250   -2.1390 C   0  0
    2.2320   -4.5080   -5.0510 C   0  0
    4.2950   -3.2130   -5.0510 C   0  0
    2.2190    1.9590   -0.4160 C   0  0
   -0.0240    1.1700   -0.9330 C   0  0
    2.9780   -5.6970   -5.0510 C   0  0
    5.0410   -4.4040   -5.0510 C   0  0
    0.8610    1.8400   -0.0660 C   0  0
    4.3830   -5.6470   -5.0510 C   0  0
    0.4200    2.3520    1.0650 O   0  0
   -0.7870    2.8790    1.0760 C   0  0
   -1.6080    2.7420    2.2090 C   0  0
   -1.2620    3.5800   -0.0470 C   0  0
   -2.8970    3.3050    2.2250 C   0  0
   -2.5490    4.1450   -0.0350 C   0  0
   -3.6640    3.1760    3.2890 O   0  0
   -3.3650    4.0060    1.1000 C   0  0
   -4.9570    3.7600    3.2560 C   0  0
   -5.6720    3.4940    4.5800 C   0  0
   -7.0760    4.0960    4.6230 C   0  0
   -7.7290    3.8160    5.9100 N   0  0
   -8.9960    4.2770    6.1350 C   0  0
   -9.5760    4.9080    5.2810 O   0  0
   -9.6490    3.9840    7.4590 C   0  0
    5.2750   -2.4080    0.0040 H   0  0
    5.9340   -4.2460    3.4320 H   0  0
    6.1580   -2.6450    2.7370 H   0  0
    6.7150   -4.0700    1.8630 H   0  0
    2.1190   -4.0650    0.7210 H   0  0
    4.6030   -0.9770   -3.2030 H   0  0
    5.4710   -2.0000   -2.0600 H   0  0
    4.7600   -0.4820   -1.5190 H   0  0
    0.1230   -3.9570   -0.7190 H   0  0
    0.1540   -2.6680   -2.8160 H   0  0
    3.3400    0.4590   -3.9120 H   0  0
    1.7190    0.5660   -4.5920 H   0  0
    2.4570   -1.3520   -5.8460 H   0  0
    1.0530   -2.2330   -5.2500 H   0  0
    3.7340    1.5080   -1.8810 H   0  0
   -0.2400    0.1110   -2.7990 H   0  0
    1.1520   -4.5530   -5.0510 H   0  0
    4.8070   -2.2620   -5.0510 H   0  0
    2.9020    2.4710    0.2440 H   0  0
   -1.0670    1.0760   -0.6720 H   0  0
    2.4730   -6.6520   -5.0510 H   0  0
    6.1210   -4.3650   -5.0510 H   0  0
    4.9570   -6.5630   -5.0510 H   0  0
   -1.2460    2.2050    3.0720 H   0  0
   -0.6350    3.6890   -0.9200 H   0  0
   -2.9100    4.6820   -0.8980 H   0  0
   -4.3540    4.4390    1.1060 H   0  0
   -4.8420    4.8320    3.0880 H   0  0
   -5.5080    3.3200    2.4240 H   0  0
   -5.7030    2.4260    4.7930 H   0  0
   -5.0740    3.8520    5.4180 H   0  0
   -7.0410    5.1720    4.4650 H   0  0
   -7.6920    3.6950    3.8170 H   0  0
   -7.2580    3.2970    6.6230 H   0  0
  -10.6470    4.4200    7.4850 H   0  0
   -9.6760    2.9080    7.6270 H   0  0
   -9.0690    4.4340    8.2640 H   0  0
  1  2  2  0
  1  3  2  0
  1  4  1  0
  1  5  1  0
  4  6  1  0
  6  7  2  0
  6  8  1  0
  7  9  1  0
  7 10  1  0
  8 11  2  0
  9 12  1  0
  9 13  2  0
 12 14  1  0
 12 15  1  0
 14 16  1  0
 15 17  1  0
 16 18  2  0
 16 19  1  0
 17 20  2  0
 17 21  1  0
 18 22  1  0
 19 23  2  0
 20 24  1  0
 21 25  2  0
 22 26  2  0
 24 27  2  0
 26 28  1  0
 28 29  1  0
 29 30  2  0
 29 31  1  0
 30 32  1  0
 31 33  2  0
 32 34  1  0
 32 35  2  0
 34 36  1  0
 36 37  1  0
 37 38  1  0
 38 39  1  0
 39 40  1  0
 40 41  2  0
 40 42  1  0
 11 13  1  0
 23 26  1  0
 25 27  1  0
 33 35  1  0
  4 43  1  0
  5 44  1  0
  5 45  1  0
  5 46  1  0
  8 47  1  0
 10 48  1  0
 10 49  1  0
 10 50  1  0
 11 51  1  0
 13 52  1  0
 14 53  1  0
 14 54  1  0
 15 55  1  0
 15 56  1  0
 18 57  1  0
 19 58  1  0
 20 59  1  0
 21 60  1  0
 22 61  1  0
 23 62  1  0
 24 63  1  0
 25 64  1  0
 27 65  1  0
 30 66  1  0
 31 67  1  0
 33 68  1  0
 35 69  1  0
 36 70  1  0
 36 71  1  0
 37 72  1  0
 37 73  1  0
 38 74  1  0
 38 75  1  0
 39 76  1  0
 42 77  1  0
 42 78  1  0
 42 79  1  0
M  END
> <Name>
CHEMBL181493

> <IC50 nM>
5.4

> <Molecule_ChEMBL_ID>
CHEMBL181493

> <Smiles>
CC(=O)NCCCOc1cccc(Oc2ccc(CN(Cc3ccccc3)c3cccc(NS(C)(=O)=O)c3C)cc2)c1

$$$$
CHEMBL182647
  SciTegic08162514323D

 71 74  0  0  0  0            999 V2000
   -4.7710   -0.4590   -3.3630 S   0  0
   -4.1290    0.6740   -4.0080 O   0  0
   -4.1680   -1.7320   -3.7150 O   0  0
   -4.6090   -0.2680   -1.7640 N   0  0
   -6.4960   -0.4880   -3.8340 C   0  0
   -3.7770   -1.0980   -1.0530 C   0  0
   -2.3940   -1.1760   -1.3440 C   0  0
   -4.3240   -1.8810   -0.0200 C   0  0
   -1.5700   -2.0450   -0.5880 C   0  0
   -1.8070   -0.3460   -2.4400 C   0  0
   -3.5020   -2.7400    0.7240 C   0  0
   -0.2250   -2.1470   -0.8380 N   0  0
   -2.1310   -2.8220    0.4430 C   0  0
    0.7640   -1.9200    0.2240 C   0  0
    0.2460   -2.4900   -2.1880 C   0  0
    0.4260   -0.7230    1.0370 C   0  0
    1.0370   -3.7500   -2.1880 C   0  0
   -0.1150   -0.8750    2.3260 C   0  0
    0.6490    0.5660    0.5190 C   0  0
    0.3790   -4.9920   -2.1880 C   0  0
    2.4420   -3.6990   -2.1880 C   0  0
   -0.4350    0.2580    3.0940 C   0  0
    0.3280    1.6970    1.2890 C   0  0
    1.1250   -6.1840   -2.1880 C   0  0
    3.1880   -4.8910   -2.1880 C   0  0
   -0.2150    1.5470    2.5780 C   0  0
    2.5290   -6.1330   -2.1880 C   0  0
   -0.5140    2.6090    3.2990 O   0  0
    0.2830    3.6560    3.2190 C   0  0
    1.6740    3.4790    3.1030 C   0  0
   -0.2540    4.9550    3.2520 C   0  0
    2.5260    4.5960    3.0170 C   0  0
    0.5960    6.0720    3.1660 C   0  0
    1.9850    5.8930    3.0510 C   0  0
    3.9940    4.4040    2.8940 C   0  0
    4.4120    4.1820    1.4410 C   0  0
    5.9030    4.0330    1.2890 C   0  0
    6.6150    5.0020    1.1620 O   0  0
    6.3500    2.7810    1.3050 O   0  0
   -5.1130    0.4550   -1.2930 H   0  0
   -6.6680   -0.6170   -4.9030 H   0  0
   -6.9710    0.4470   -3.5310 H   0  0
   -7.0000   -1.3010   -3.3150 H   0  0
   -5.3790   -1.8360    0.2150 H   0  0
   -2.3690    0.5840   -2.5330 H   0  0
   -0.7480   -0.1800   -2.2420 H   0  0
   -1.8910   -0.8810   -3.3850 H   0  0
   -3.9260   -3.3400    1.5170 H   0  0
   -1.5160   -3.4920    1.0290 H   0  0
    1.7480   -1.7890   -0.2230 H   0  0
    0.8050   -2.7970    0.8710 H   0  0
    0.8630   -1.6760   -2.5710 H   0  0
   -0.6110   -2.6000   -2.8520 H   0  0
   -0.2890   -1.8630    2.7300 H   0  0
    1.0650    0.6910   -0.4690 H   0  0
   -0.7010   -5.0390   -2.1880 H   0  0
    2.9530   -2.7480   -2.1880 H   0  0
   -0.8510    0.1350    4.0840 H   0  0
    0.5000    2.6860    0.8870 H   0  0
    0.6190   -7.1390   -2.1880 H   0  0
    4.2680   -4.8520   -2.1880 H   0  0
    3.1040   -7.0490   -2.1880 H   0  0
    2.0860    2.4810    3.0780 H   0  0
   -1.3200    5.0960    3.3420 H   0  0
    0.1800    7.0680    3.1910 H   0  0
    2.6330    6.7540    2.9860 H   0  0
    4.3050    3.5650    3.5170 H   0  0
    4.5100    5.2680    3.3160 H   0  0
    4.0690    5.0590    0.8920 H   0  0
    3.9080    3.3090    1.0230 H   0  0
    5.7230    2.0550    1.4240 H   0  0
  1  2  2  0
  1  3  2  0
  1  4  1  0
  1  5  1  0
  4  6  1  0
  6  7  2  0
  6  8  1  0
  7  9  1  0
  7 10  1  0
  8 11  2  0
  9 12  1  0
  9 13  2  0
 12 14  1  0
 12 15  1  0
 14 16  1  0
 15 17  1  0
 16 18  2  0
 16 19  1  0
 17 20  2  0
 17 21  1  0
 18 22  1  0
 19 23  2  0
 20 24  1  0
 21 25  2  0
 22 26  2  0
 24 27  2  0
 26 28  1  0
 28 29  1  0
 29 30  2  0
 29 31  1  0
 30 32  1  0
 31 33  2  0
 32 34  2  0
 32 35  1  0
 35 36  1  0
 36 37  1  0
 37 38  2  0
 37 39  1  0
 11 13  1  0
 23 26  1  0
 25 27  1  0
 33 34  1  0
  4 40  1  0
  5 41  1  0
  5 42  1  0
  5 43  1  0
  8 44  1  0
 10 45  1  0
 10 46  1  0
 10 47  1  0
 11 48  1  0
 13 49  1  0
 14 50  1  0
 14 51  1  0
 15 52  1  0
 15 53  1  0
 18 54  1  0
 19 55  1  0
 20 56  1  0
 21 57  1  0
 22 58  1  0
 23 59  1  0
 24 60  1  0
 25 61  1  0
 27 62  1  0
 30 63  1  0
 31 64  1  0
 33 65  1  0
 34 66  1  0
 35 67  1  0
 35 68  1  0
 36 69  1  0
 36 70  1  0
 39 71  1  0
M  END
> <Name>
CHEMBL182647

> <IC50 nM>
26

> <Molecule_ChEMBL_ID>
CHEMBL182647

> <Smiles>
Cc1c(NS(C)(=O)=O)cccc1N(Cc1ccccc1)Cc1ccc(Oc2cccc(CCC(=O)O)c2)cc1

$$$$
CHEMBL247772
  SciTegic08162514323D

 55 58  0  0  0  0            999 V2000
   -1.9590    4.2170   -1.8090 O   0  0
   -1.4120    5.4140   -1.8810 C   0  0
   -1.3910    3.2770   -0.9100 C   0  0
   -1.9400    6.3810   -2.7540 C   0  0
   -0.2990    5.7310   -1.0820 C   0  0
   -2.1700    1.9650   -0.9840 C   0  0
   -1.3570    7.6580   -2.8300 C   0  0
    0.2850    7.0080   -1.1580 C   0  0
   -1.6310    0.9450   -0.0840 N   0  0
   -0.2440    7.9710   -2.0310 C   0  0
   -0.4790    0.1350   -0.2400 C   0  0
   -2.1580    0.5120    1.2150 C   0  0
    0.2810    0.2090   -1.2720 N   0  0
   -0.2270   -0.7640    0.8280 N   0  0
   -1.3380   -0.4860    1.7480 C   0  0
   -3.3050    0.9670    1.9020 C   0  0
    0.8590   -1.7290    0.9860 C   0  0
   -1.6190   -1.0800    3.0000 C   0  0
   -3.6040    0.3830    3.1620 C   0  0
    0.6700   -2.9650    0.1070 C   0  0
   -2.7680   -0.6330    3.7070 C   0  0
    1.6860   -3.9670    0.4080 N   0  0
    1.2580   -5.3090   -0.0080 C   0  0
    2.9920   -3.5900   -0.1520 C   0  0
    2.2910   -6.3710    0.4020 C   0  0
    4.0780   -4.5980    0.2580 C   0  0
    3.6880   -6.0290   -0.1290 C   0  0
   -0.3500    3.1230   -1.1930 H   0  0
   -1.4340    3.6950    0.0940 H   0  0
   -2.7950    6.1450   -3.3710 H   0  0
    0.1110    4.9920   -0.4080 H   0  0
   -3.2250    2.1290   -0.7580 H   0  0
   -2.1820    1.5800   -2.0040 H   0  0
   -1.7640    8.3990   -3.5040 H   0  0
    1.1410    7.2460   -0.5430 H   0  0
    0.2050    8.9510   -2.0900 H   0  0
    0.0660    0.8460   -2.0120 H   0  0
   -3.9360    1.7360    1.4860 H   0  0
    0.9450   -2.0100    2.0350 H   0  0
    1.8110   -1.2420    0.7660 H   0  0
   -0.9820   -1.8500    3.4080 H   0  0
   -4.4750    0.7110    3.7110 H   0  0
    0.7230   -2.6990   -0.9490 H   0  0
   -0.3200   -3.3970    0.2580 H   0  0
   -3.0080   -1.0680    4.6660 H   0  0
    1.1130   -5.3280   -1.0880 H   0  0
    0.2930   -5.5410    0.4470 H   0  0
    3.2660   -2.5940    0.1970 H   0  0
    2.9220   -3.5410   -1.2380 H   0  0
    2.3240   -6.4450    1.4900 H   0  0
    1.9820   -7.3520    0.0350 H   0  0
    5.0270   -4.3320   -0.2070 H   0  0
    4.2360   -4.5450    1.3360 H   0  0
    3.6930   -6.1250   -1.2150 H   0  0
    4.4220   -6.7380    0.2540 H   0  0
  1  2  1  0
  1  3  1  0
  2  4  2  0
  2  5  1  0
  3  6  1  0
  4  7  1  0
  5  8  2  0
  6  9  1  0
  7 10  2  0
  9 11  1  0
  9 12  1  0
 11 13  2  0
 11 14  1  0
 12 15  2  0
 12 16  1  0
 14 17  1  0
 15 18  1  0
 16 19  2  0
 17 20  1  0
 18 21  2  0
 20 22  1  0
 22 23  1  0
 22 24  1  0
 23 25  1  0
 24 26  1  0
 25 27  1  0
  8 10  1  0
 14 15  1  0
 19 21  1  0
 26 27  1  0
  3 28  1  0
  3 29  1  0
  4 30  1  0
  5 31  1  0
  6 32  1  0
  6 33  1  0
  7 34  1  0
  8 35  1  0
 10 36  1  0
 13 37  1  0
 16 38  1  0
 17 39  1  0
 17 40  1  0
 18 41  1  0
 19 42  1  0
 20 43  1  0
 20 44  1  0
 21 45  1  0
 23 46  1  0
 23 47  1  0
 24 48  1  0
 24 49  1  0
 25 50  1  0
 25 51  1  0
 26 52  1  0
 26 53  1  0
 27 54  1  0
 27 55  1  0
M  END
> <Name>
CHEMBL247772

> <IC50 nM>
100000

> <Molecule_ChEMBL_ID>
CHEMBL247772

> <Smiles>
N=c1n(CCOc2ccccc2)c2ccccc2n1CCN1CCCCC1

$$$$
CHEMBL1085853
  SciTegic08162514323D

 49 52  0  0  0  0            999 V2000
   -4.4390   -3.1090    0.5900 S   0  0
   -5.3570   -2.3970    1.4590 O   0  0
   -4.1150   -4.4410    1.0680 O   0  0
   -5.2810   -3.3320   -0.9160 N   0  0
   -2.9770   -2.1990    0.4820 C   0  0
   -6.5220   -4.0860   -0.9000 C   0  0
   -2.4630   -1.5640    1.6270 C   0  0
   -2.3030   -2.0960   -0.7440 C   0  0
   -7.0100   -4.3460   -2.3240 C   0  0
   -1.2690   -0.8220    1.5470 C   0  0
   -1.1110   -1.3550   -0.8300 C   0  0
   -0.5920   -0.7170    0.3130 C   0  0
   -0.7500   -0.1600    2.7750 C   0  0
    0.6470    0.0470    0.2010 C   0  0
   -1.5600   -0.4690    3.8380 F   0  0
   -0.7340    1.1970    2.5920 F   0  0
    0.5240   -0.6020    3.0290 F   0  0
    1.9000   -0.6250    0.1720 C   0  0
    0.6060    1.4670    0.1230 C   0  0
    3.0980    0.1290    0.0630 C   0  0
    1.8030    2.2170    0.0160 C   0  0
    3.0260    1.5080   -0.0100 C   0  0
    4.3500   -0.4590    0.0270 C   0  0
    4.3320    1.8610   -0.1000 N   0  0
    5.0820    0.7050   -0.0760 N   0  0
    4.8300    3.1210   -0.1970 C   0  0
    5.8770    3.4000   -1.0980 C   0  0
    4.3010    4.1540    0.6020 C   0  0
    6.3910    4.7050   -1.1970 C   0  0
    4.8170    5.4570    0.5000 C   0  0
    5.8610    5.7340   -0.4000 C   0  0
    6.3500    6.9690   -0.4940 F   0  0
   -5.4670   -2.4120   -1.3460 H   0  0
   -6.3690   -5.0240   -0.3670 H   0  0
   -7.2730   -3.5370   -0.3300 H   0  0
   -2.9880   -1.6500    2.5660 H   0  0
   -2.6990   -2.5840   -1.6230 H   0  0
   -7.9380   -4.9200   -2.3160 H   0  0
   -7.1780   -3.4060   -2.8540 H   0  0
   -6.2720   -4.9160   -2.8870 H   0  0
   -0.6050   -1.2850   -1.7830 H   0  0
    1.9430   -1.7050    0.2310 H   0  0
   -0.3400    1.9920    0.1450 H   0  0
    1.7790    3.2950   -0.0430 H   0  0
    4.7010   -1.4820    0.0660 H   0  0
    6.2970    2.6230   -1.7210 H   0  0
    3.4980    3.9610    1.2990 H   0  0
    7.1940    4.9120   -1.8910 H   0  0
    4.4060    6.2460    1.1150 H   0  0
  1  2  2  0
  1  3  2  0
  1  4  1  0
  1  5  1  0
  4  6  1  0
  5  7  2  0
  5  8  1  0
  6  9  1  0
  7 10  1  0
  8 11  2  0
 10 12  2  0
 10 13  1  0
 12 14  1  0
 13 15  1  0
 13 16  1  0
 13 17  1  0
 14 18  2  0
 14 19  1  0
 18 20  1  0
 19 21  2  0
 20 22  2  0
 20 23  1  0
 22 24  1  0
 23 25  2  0
 24 26  1  0
 26 27  2  0
 26 28  1  0
 27 29  1  0
 28 30  2  0
 29 31  2  0
 31 32  1  0
 11 12  1  0
 21 22  1  0
 24 25  1  0
 30 31  1  0
  4 33  1  0
  6 34  1  0
  6 35  1  0
  7 36  1  0
  8 37  1  0
  9 38  1  0
  9 39  1  0
  9 40  1  0
 11 41  1  0
 18 42  1  0
 19 43  1  0
 21 44  1  0
 23 45  1  0
 27 46  1  0
 28 47  1  0
 29 48  1  0
 30 49  1  0
M  END
> <Name>
CHEMBL1085853

> <IC50 nM>
19.95

> <Molecule_ChEMBL_ID>
CHEMBL1085853

> <Smiles>
CCNS(=O)(=O)c1ccc(-c2ccc3c(cnn3-c3ccc(F)cc3)c2)c(C(F)(F)F)c1

$$$$
CHEMBL1083149
  SciTegic08162514323D

 53 57  0  0  0  0            999 V2000
   -3.7830   -2.7500   -0.2560 S   0  0
   -3.4450   -4.1560   -0.1250 O   0  0
   -4.5840   -2.4590   -1.4320 O   0  0
   -4.6580   -2.3360    1.0430 N   0  0
   -2.3160   -1.8480   -0.3610 C   0  0
   -5.7910   -3.0410    1.3590 C   0  0
   -1.5920   -1.5530    0.8050 C   0  0
   -1.8500   -1.4120   -1.6110 C   0  0
   -6.4730   -2.7790    2.5630 C   0  0
   -6.2770   -4.0270    0.4780 C   0  0
   -0.3950   -0.8180    0.7250 C   0  0
   -0.6540   -0.6780   -1.6970 C   0  0
   -7.6330   -3.5020    2.8850 C   0  0
   -7.4400   -4.7480    0.8050 C   0  0
    0.0760   -0.3770   -0.5310 C   0  0
    0.3540   -0.5200    1.9800 C   0  0
   -8.1170   -4.4860    2.0060 C   0  0
    1.3130    0.3850   -0.6430 C   0  0
    0.5980    0.8260    2.0570 F   0  0
    1.5430   -1.2010    1.9750 F   0  0
   -0.3930   -0.9120    3.0610 F   0  0
    2.5660   -0.2870   -0.6720 C   0  0
    1.2720    1.8050   -0.7210 C   0  0
    3.7640    0.4670   -0.7810 C   0  0
    2.4690    2.5550   -0.8280 C   0  0
    3.6910    1.8460   -0.8540 C   0  0
    5.0160   -0.1210   -0.8160 C   0  0
    4.9980    2.1990   -0.9450 N   0  0
    5.7480    1.0430   -0.9200 N   0  0
    5.4960    3.4590   -1.0410 C   0  0
    6.5450    3.7380   -1.9400 C   0  0
    4.9650    4.4920   -0.2440 C   0  0
    7.0590    5.0430   -2.0390 C   0  0
    5.4810    5.7970   -0.3460 C   0  0
    6.5270    6.0720   -1.2440 C   0  0
    7.0160    7.3070   -1.3380 F   0  0
   -4.3710   -1.5680    1.6150 H   0  0
   -1.9570   -1.8950    1.7620 H   0  0
   -2.4080   -1.6390   -2.5100 H   0  0
   -6.1150   -2.0250    3.2520 H   0  0
   -5.7680   -4.2420   -0.4490 H   0  0
   -0.3090   -0.3480   -2.6680 H   0  0
   -8.1540   -3.3010    3.8090 H   0  0
   -7.8110   -5.5040    0.1290 H   0  0
   -9.0100   -5.0410    2.2560 H   0  0
    2.6090   -1.3670   -0.6130 H   0  0
    0.3260    2.3300   -0.6990 H   0  0
    2.4450    3.6330   -0.8870 H   0  0
    5.3670   -1.1450   -0.7770 H   0  0
    6.9670    2.9590   -2.5610 H   0  0
    4.1600    4.3010    0.4510 H   0  0
    7.8630    5.2500   -2.7310 H   0  0
    5.0700    6.5840    0.2680 H   0  0
  1  2  2  0
  1  3  2  0
  1  4  1  0
  1  5  1  0
  4  6  1  0
  5  7  2  0
  5  8  1  0
  6  9  2  0
  6 10  1  0
  7 11  1  0
  8 12  2  0
  9 13  1  0
 10 14  2  0
 11 15  2  0
 11 16  1  0
 13 17  2  0
 15 18  1  0
 16 19  1  0
 16 20  1  0
 16 21  1  0
 18 22  2  0
 18 23  1  0
 22 24  1  0
 23 25  2  0
 24 26  2  0
 24 27  1  0
 26 28  1  0
 27 29  2  0
 28 30  1  0
 30 31  2  0
 30 32  1  0
 31 33  1  0
 32 34  2  0
 33 35  2  0
 35 36  1  0
 12 15  1  0
 14 17  1  0
 25 26  1  0
 28 29  1  0
 34 35  1  0
  4 37  1  0
  7 38  1  0
  8 39  1  0
  9 40  1  0
 10 41  1  0
 12 42  1  0
 13 43  1  0
 14 44  1  0
 17 45  1  0
 22 46  1  0
 23 47  1  0
 25 48  1  0
 27 49  1  0
 31 50  1  0
 32 51  1  0
 33 52  1  0
 34 53  1  0
M  END
> <Name>
CHEMBL1083149

> <IC50 nM>
25.12

> <Molecule_ChEMBL_ID>
CHEMBL1083149

> <Smiles>
O=S(=O)(Nc1ccccc1)c1ccc(-c2ccc3c(cnn3-c3ccc(F)cc3)c2)c(C(F)(F)F)c1

$$$$
CHEMBL1084389
  SciTegic08162514323D

 38 41  0  0  0  0            999 V2000
    4.6520    6.1860   -0.4410 F   0  0
    4.1660    4.9510   -0.3480 C   0  0
    3.1170    4.6760    0.5490 C   0  0
    4.6970    3.9220   -1.1430 C   0  0
    2.6010    3.3730    0.6500 C   0  0
    4.1840    2.6170   -1.0430 C   0  0
    3.1330    2.3400   -0.1440 C   0  0
    2.6370    1.0780   -0.0490 N   0  0
    3.3850   -0.0760   -0.0230 N   0  0
    1.3280    0.7250    0.0430 C   0  0
    2.6540   -1.2420    0.0800 C   0  0
    1.4020   -0.6520    0.1150 C   0  0
    0.1070    1.4340    0.0680 C   0  0
    0.2050   -1.4080    0.2250 C   0  0
   -1.0900    0.6860    0.1760 C   0  0
   -1.0510   -0.7360    0.2540 C   0  0
   -2.2850   -1.4980    0.3650 C   0  0
   -2.4450   -2.6910   -0.3630 C   0  0
   -3.3200   -1.0410    1.2010 C   0  0
   -3.6390   -3.4280   -0.2540 C   0  0
   -4.5140   -1.7770    1.3070 C   0  0
   -4.6740   -2.9690    0.5800 C   0  0
   -3.8090   -4.6890   -1.0230 C   0  0
   -2.8360   -5.5820   -0.6560 F   0  0
   -3.7030   -4.4240   -2.3650 F   0  0
   -5.0430   -5.2230   -0.7580 F   0  0
    2.7070    5.4650    1.1620 H   0  0
    5.5020    4.1290   -1.8320 H   0  0
    1.7970    3.1800    1.3460 H   0  0
    4.6050    1.8400   -1.6620 H   0  0
    3.0060   -2.2660    0.1190 H   0  0
    0.0840    2.5120    0.0100 H   0  0
    0.2460   -2.4860    0.2830 H   0  0
   -2.0350    1.2090    0.1970 H   0  0
   -1.6540   -3.0530   -1.0080 H   0  0
   -3.2150   -0.1250    1.7660 H   0  0
   -5.3090   -1.4260    1.9490 H   0  0
   -5.5920   -3.5290    0.6660 H   0  0
  1  2  1  0
  2  3  2  0
  2  4  1  0
  3  5  1  0
  4  6  2  0
  5  7  2  0
  7  8  1  0
  8  9  1  0
  8 10  1  0
  9 11  2  0
 10 12  1  0
 10 13  2  0
 12 14  2  0
 13 15  1  0
 14 16  1  0
 16 17  1  0
 17 18  2  0
 17 19  1  0
 18 20  1  0
 19 21  2  0
 20 22  2  0
 20 23  1  0
 23 24  1  0
 23 25  1  0
 23 26  1  0
  6  7  1  0
 11 12  1  0
 15 16  2  0
 21 22  1  0
  3 27  1  0
  4 28  1  0
  5 29  1  0
  6 30  1  0
 11 31  1  0
 13 32  1  0
 14 33  1  0
 15 34  1  0
 18 35  1  0
 19 36  1  0
 21 37  1  0
 22 38  1  0
M  END
> <Name>
CHEMBL1084389

> <IC50 nM>
3162.28

> <Molecule_ChEMBL_ID>
CHEMBL1084389

> <Smiles>
Fc1ccc(-n2ncc3cc(-c4cccc(C(F)(F)F)c4)ccc32)cc1

$$$$
CHEMBL1668068
  SciTegic08162514323D

 64 67  0  0  1  0            999 V2000
   -0.4730   -4.1700    0.2750 S   0  0
   -1.5140   -5.1820    0.3080 O   0  0
    0.3850   -4.2680   -0.8950 O   0  0
   -1.2930   -2.6410    0.1400 N   0  0
    0.5100   -4.3520    1.6850 C   0  0
   -2.0370   -2.3730   -1.0780 C   0  0  2  0  0  0
    1.8610   -3.9610    1.6560 C   0  0
   -0.0430   -4.8890    2.8630 C   0  0
   -2.4040   -0.8910   -1.1660 C   0  0
   -3.2580   -3.2870   -1.1740 C   0  0
    2.6600   -4.1090    2.8050 C   0  0
    2.4530   -3.3930    0.4160 C   0  0
    0.7580   -5.0370    4.0100 C   0  0
   -1.4710   -5.3030    2.9000 C   0  0
   -1.1990   -0.0570   -1.2890 N   0  0
    2.1080   -4.6470    3.9800 C   0  0
   -1.3120    1.2850   -1.3600 C   0  0
    2.9530   -4.8050    5.1930 C   0  0
   -0.0800    2.0140   -1.4670 C   0  0
   -2.5570    1.9670   -1.3300 C   0  0
   -0.1580    3.3970   -1.5410 C   0  0
    1.1970    1.4530   -1.5060 C   0  0
   -2.5860    3.3850   -1.4080 C   0  0
    1.1450    3.7680   -1.6330 N   0  0
   -1.3770    4.1170   -1.5160 C   0  0
    1.9100    2.6250   -1.6100 N   0  0
   -3.8730    4.0940   -1.3790 C   0  0
    1.6290    5.0330   -1.7290 C   0  0
    1.1040    6.0550   -0.9120 C   0  0
    2.6580    5.3260   -2.6450 C   0  0
    1.6040    7.3650   -1.0140 C   0  0
    3.1600    6.6370   -2.7460 C   0  0
    2.6310    7.6510   -1.9300 C   0  0
    3.1430    8.9900   -2.0330 C   0  0
    3.5570   10.0700   -2.1170 N   0  0
   -1.9320   -2.5230    0.9390 H   0  0
   -1.3010   -2.6330   -1.8380 H   0  0
   -2.9670   -0.5800   -0.2850 H   0  0
   -3.0570   -0.7050   -2.0200 H   0  0
   -2.9510   -4.3260   -1.3090 H   0  0
   -3.8690   -3.2110   -0.2760 H   0  0
   -3.8810   -3.0120   -2.0260 H   0  0
    3.6970   -3.8110    2.7830 H   0  0
    3.4200   -2.9080    0.5600 H   0  0
    1.7720   -2.6540   -0.0060 H   0  0
    2.5840   -4.1860   -0.3210 H   0  0
    0.3340   -5.4490    4.9140 H   0  0
   -1.8590   -5.4820    3.9040 H   0  0
   -1.6000   -6.2210    2.3260 H   0  0
   -2.0860   -4.5310    2.4390 H   0  0
   -0.2970   -0.4840   -1.3210 H   0  0
    2.4320   -5.2290    6.0510 H   0  0
    3.3460   -3.8320    5.4920 H   0  0
    3.8010   -5.4490    4.9650 H   0  0
   -3.4820    1.4140   -1.2480 H   0  0
    1.5720    0.4390   -1.4690 H   0  0
   -1.3850    5.1950   -1.5740 H   0  0
   -4.7440    3.4430   -1.2950 H   0  0
   -3.9840    4.6840   -2.2890 H   0  0
   -3.8910    4.7830   -0.5330 H   0  0
    0.3150    5.8520   -0.2030 H   0  0
    3.0760    4.5590   -3.2800 H   0  0
    1.1920    8.1390   -0.3810 H   0  0
    3.9510    6.8480   -3.4530 H   0  0
  1  2  2  0
  1  3  2  0
  1  4  1  0
  1  5  1  0
  4  6  1  0
  5  7  2  0
  5  8  1  0
  6  9  1  0
  6 10  1  0
  7 11  1  0
  7 12  1  0
  8 13  2  0
  8 14  1  0
  9 15  1  0
 11 16  2  0
 15 17  1  0
 16 18  1  0
 17 19  2  0
 17 20  1  0
 19 21  1  0
 19 22  1  0
 20 23  2  0
 21 24  1  0
 21 25  2  0
 22 26  2  0
 23 27  1  0
 24 28  1  0
 28 29  2  0
 28 30  1  0
 29 31  1  0
 30 32  2  0
 31 33  2  0
 33 34  1  0
 34 35  3  0
 13 16  1  0
 23 25  1  0
 24 26  1  0
 32 33  1  0
  4 36  1  0
  6 37  1  0
  9 38  1  0
  9 39  1  0
 10 40  1  0
 10 41  1  0
 10 42  1  0
 11 43  1  0
 12 44  1  0
 12 45  1  0
 12 46  1  0
 13 47  1  0
 14 48  1  0
 14 49  1  0
 14 50  1  0
 15 51  1  0
 18 52  1  0
 18 53  1  0
 18 54  1  0
 20 55  1  0
 22 56  1  0
 25 57  1  0
 27 58  1  0
 27 59  1  0
 27 60  1  0
 29 61  1  0
 30 62  1  0
 31 63  1  0
 32 64  1  0
M  END
> <Name>
CHEMBL1668068

> <IC50 nM>
15.85

> <Molecule_ChEMBL_ID>
CHEMBL1668068

> <Smiles>
Cc1cc(C)c(S(=O)(=O)N[C@@H](C)CNc2cc(C)cc3c2cnn3-c2ccc(C#N)cc2)c(C)c1

$$$$
CHEMBL1668074
  SciTegic08162514323D

 72 75  0  0  1  0            999 V2000
    0.2930   -4.5780    1.0350 S   0  0
    1.2270   -4.5160   -0.0760 O   0  0
    0.9450   -4.5550    2.3320 O   0  0
   -0.6540   -3.1210    0.9470 N   0  0
   -0.6090   -6.0470    0.9060 C   0  0
   -1.4060   -2.8670   -0.2680 C   0  0  2  0  0  0
   -0.6700   -6.7290   -0.3240 C   0  0
   -1.2810   -6.5610    2.0310 C   0  0
   -1.7730   -1.3870   -0.3730 C   0  0
   -2.6270   -3.7850   -0.3440 C   0  0
   -1.4060   -7.9220   -0.4280 C   0  0
    0.0370   -6.1910   -1.5180 C   0  0
   -2.0160   -7.7540    1.9240 C   0  0
   -1.2210   -5.8460    3.3340 C   0  0
   -0.5700   -0.5550   -0.5100 N   0  0
   -2.0780   -8.4360    0.6950 C   0  0
   -0.6830    0.7870   -0.5780 C   0  0
   -2.8530   -9.6990    0.5860 C   0  0
    0.5490    1.5160   -0.6870 C   0  0
   -1.9260    1.4710   -0.5490 C   0  0
    0.4710    2.9000   -0.7600 C   0  0
    1.8260    0.9550   -0.7250 C   0  0
   -1.9550    2.8870   -0.6270 C   0  0
    1.7760    3.2700   -0.8510 N   0  0
   -0.7480    3.6190   -0.7340 C   0  0
    2.5390    2.1290   -0.8300 N   0  0
   -3.2440    3.5980   -0.6000 C   0  0
    2.2600    4.5350   -0.9490 C   0  0
    1.7440    5.5550   -0.1230 C   0  0
    3.2780    4.8320   -1.8750 C   0  0
    2.2460    6.8630   -0.2250 C   0  0
    3.7790    6.1430   -1.9750 C   0  0
    3.2640    7.1600   -1.1500 C   0  0
    3.7520    8.4360   -1.2480 N   0  0
    3.2030    9.5020   -0.3940 C   0  0
    3.6450    9.3500    1.0350 C   0  0
    4.5140    8.5670    1.3380 O   0  0
    3.0450   10.1170    1.9920 N   0  0
   -1.3070   -3.0880    1.7440 H   0  0
   -0.6740   -3.1370   -1.0290 H   0  0
   -2.3340   -1.0660    0.5060 H   0  0
   -2.4300   -1.2110   -1.2260 H   0  0
   -3.1680   -3.7830    0.6040 H   0  0
   -3.3010   -3.4670   -1.1390 H   0  0
   -2.3260   -4.8110   -0.5530 H   0  0
   -1.4530   -8.4470   -1.3710 H   0  0
    1.1230   -6.2540   -1.4590 H   0  0
   -0.2300   -5.1450   -1.6560 H   0  0
   -0.2810   -6.7380   -2.4040 H   0  0
   -2.5310   -8.1500    2.7870 H   0  0
   -1.3480   -4.7660    3.2600 H   0  0
   -0.2580   -6.0350    3.8070 H   0  0
   -1.9980   -6.2290    3.9940 H   0  0
    0.3320   -0.9820   -0.5490 H   0  0
   -3.3360  -10.0120    1.5120 H   0  0
   -2.1910  -10.5060    0.2680 H   0  0
   -3.6270   -9.5840   -0.1740 H   0  0
   -2.8510    0.9160   -0.4670 H   0  0
    2.2030   -0.0590   -0.6890 H   0  0
   -0.7560    4.6970   -0.7950 H   0  0
   -4.1130    2.9450   -0.5140 H   0  0
   -3.3550    4.1860   -1.5100 H   0  0
   -3.2600    4.2850    0.2460 H   0  0
    0.9630    5.3460    0.5940 H   0  0
    3.6860    4.0650   -2.5160 H   0  0
    1.8380    7.6330    0.4180 H   0  0
    4.5610    6.3520   -2.6910 H   0  0
    4.4830    8.6310   -1.9020 H   0  0
    2.1150    9.4790   -0.4510 H   0  0
    3.5220   10.4690   -0.7810 H   0  0
    3.3030   10.0550    2.9570 H   0  0
    2.3260   10.7660    1.7400 H   0  0
  1  2  2  0
  1  3  2  0
  1  4  1  0
  1  5  1  0
  4  6  1  0
  5  7  2  0
  5  8  1  0
  6  9  1  0
  6 10  1  0
  7 11  1  0
  7 12  1  0
  8 13  2  0
  8 14  1  0
  9 15  1  0
 11 16  2  0
 15 17  1  0
 16 18  1  0
 17 19  2  0
 17 20  1  0
 19 21  1  0
 19 22  1  0
 20 23  2  0
 21 24  1  0
 21 25  2  0
 22 26  2  0
 23 27  1  0
 24 28  1  0
 28 29  2  0
 28 30  1  0
 29 31  1  0
 30 32  2  0
 31 33  2  0
 33 34  1  0
 34 35  1  0
 35 36  1  0
 36 37  2  0
 36 38  1  0
 13 16  1  0
 23 25  1  0
 24 26  1  0
 32 33  1  0
  4 39  1  0
  6 40  1  0
  9 41  1  0
  9 42  1  0
 10 43  1  0
 10 44  1  0
 10 45  1  0
 11 46  1  0
 12 47  1  0
 12 48  1  0
 12 49  1  0
 13 50  1  0
 14 51  1  0
 14 52  1  0
 14 53  1  0
 15 54  1  0
 18 55  1  0
 18 56  1  0
 18 57  1  0
 20 58  1  0
 22 59  1  0
 25 60  1  0
 27 61  1  0
 27 62  1  0
 27 63  1  0
 29 64  1  0
 30 65  1  0
 31 66  1  0
 32 67  1  0
 34 68  1  0
 35 69  1  0
 35 70  1  0
 38 71  1  0
 38 72  1  0
M  END
> <Name>
CHEMBL1668074

> <IC50 nM>
15.85

> <Molecule_ChEMBL_ID>
CHEMBL1668074

> <Smiles>
Cc1cc(C)c(S(=O)(=O)N[C@@H](C)CNc2cc(C)cc3c2cnn3-c2ccc(NCC(N)=O)cc2)c(C)c1

$$$$
CHEMBL1668079
  SciTegic08162514323D

 72 75  0  0  1  0            999 V2000
   -1.0920   -5.0960    0.7970 S   0  0
   -2.1130   -6.1270    0.8400 O   0  0
   -0.2460   -5.1760   -0.3810 O   0  0
   -1.9430   -3.5840    0.6740 N   0  0
   -0.0940   -5.2620    2.1970 C   0  0
   -2.6990   -3.3220   -0.5390 C   0  0  2  0  0  0
    0.0780   -6.5260    2.7930 C   0  0
    0.5490   -4.1330    2.7420 C   0  0
   -3.0660   -1.8420   -0.6350 C   0  0
   -3.9200   -4.2380   -0.6170 C   0  0
    0.8930   -6.6600    3.9320 C   0  0
   -0.5960   -7.7230    2.2250 C   0  0
    1.3610   -4.2700    3.8810 C   0  0
    0.3710   -2.7950    2.1190 C   0  0
   -1.8610   -1.0080   -0.7620 N   0  0
    1.5330   -5.5330    4.4770 C   0  0
   -1.9750    0.3340   -0.8300 C   0  0
    2.3930   -5.6760    5.6820 C   0  0
   -0.7420    1.0620   -0.9390 C   0  0
   -3.2190    1.0160   -0.8010 C   0  0
   -0.8200    2.4450   -1.0120 C   0  0
    0.5350    0.5020   -0.9770 C   0  0
   -3.2480    2.4340   -0.8810 C   0  0
    0.4820    2.8160   -1.1040 N   0  0
   -2.0390    3.1660   -0.9860 C   0  0
    1.2480    1.6740   -1.0820 N   0  0
   -4.5350    3.1430   -0.8520 C   0  0
    0.9670    4.0820   -1.2010 C   0  0
    1.9980    4.3770   -2.1150 C   0  0
    0.4410    5.1020   -0.3850 C   0  0
    2.4980    5.6890   -2.2150 C   0  0
    0.9410    6.4100   -0.4840 C   0  0
    3.5000    5.9790   -3.1040 N   0  0
    1.9690    6.7050   -1.3970 C   0  0
    4.0200    7.3500   -3.2050 C   0  0
    5.1110    7.4530   -4.2360 C   0  0
    5.4650    6.4840   -4.8690 O   0  0
    5.6990    8.6680   -4.4490 N   0  0
   -2.5800   -3.4810    1.4790 H   0  0
   -1.9690   -3.5880   -1.3030 H   0  0
   -3.6290   -1.5270    0.2440 H   0  0
   -3.7190   -1.6600   -1.4880 H   0  0
   -3.6150   -5.2790   -0.7360 H   0  0
   -4.5290   -4.1470    0.2830 H   0  0
   -4.5470   -3.9750   -1.4710 H   0  0
    1.0240   -7.6290    4.3910 H   0  0
   -0.5180   -7.8090    1.1410 H   0  0
   -1.6540   -7.6990    2.4810 H   0  0
   -0.1680   -8.6230    2.6620 H   0  0
    1.8540   -3.4040    4.3010 H   0  0
    0.4160   -2.7990    1.0290 H   0  0
    1.1470   -2.1190    2.4810 H   0  0
   -0.5940   -2.3830    2.4120 H   0  0
   -0.9590   -1.4360   -0.7950 H   0  0
    2.8440   -4.7440    6.0240 H   0  0
    3.1990   -6.3790    5.4710 H   0  0
    1.8030   -6.0820    6.5020 H   0  0
   -4.1450    0.4630   -0.7210 H   0  0
    0.9120   -0.5120   -0.9410 H   0  0
   -2.0470    4.2440   -1.0470 H   0  0
   -5.4040    2.4920   -0.7680 H   0  0
   -4.6470    3.7320   -1.7620 H   0  0
   -4.5530    3.8320   -0.0060 H   0  0
    2.4040    3.5940   -2.7440 H   0  0
   -0.3500    4.8950    0.3240 H   0  0
    0.5350    7.1910    0.1410 H   0  0
    3.8670    5.2480   -3.6800 H   0  0
    2.3400    7.7190   -1.4590 H   0  0
    4.3990    7.6620   -2.2320 H   0  0
    3.2030    8.0250   -3.4610 H   0  0
    6.4280    8.7890   -5.1230 H   0  0
    5.4040    9.4690   -3.9280 H   0  0
  1  2  2  0
  1  3  2  0
  1  4  1  0
  1  5  1  0
  4  6  1  0
  5  7  2  0
  5  8  1  0
  6  9  1  0
  6 10  1  0
  7 11  1  0
  7 12  1  0
  8 13  2  0
  8 14  1  0
  9 15  1  0
 11 16  2  0
 15 17  1  0
 16 18  1  0
 17 19  2  0
 17 20  1  0
 19 21  1  0
 19 22  1  0
 20 23  2  0
 21 24  1  0
 21 25  2  0
 22 26  2  0
 23 27  1  0
 24 28  1  0
 28 29  2  0
 28 30  1  0
 29 31  1  0
 30 32  2  0
 31 33  1  0
 31 34  2  0
 33 35  1  0
 35 36  1  0
 36 37  2  0
 36 38  1  0
 13 16  1  0
 23 25  1  0
 24 26  1  0
 32 34  1  0
  4 39  1  0
  6 40  1  0
  9 41  1  0
  9 42  1  0
 10 43  1  0
 10 44  1  0
 10 45  1  0
 11 46  1  0
 12 47  1  0
 12 48  1  0
 12 49  1  0
 13 50  1  0
 14 51  1  0
 14 52  1  0
 14 53  1  0
 15 54  1  0
 18 55  1  0
 18 56  1  0
 18 57  1  0
 20 58  1  0
 22 59  1  0
 25 60  1  0
 27 61  1  0
 27 62  1  0
 27 63  1  0
 29 64  1  0
 30 65  1  0
 32 66  1  0
 33 67  1  0
 34 68  1  0
 35 69  1  0
 35 70  1  0
 38 71  1  0
 38 72  1  0
M  END
> <Name>
CHEMBL1668079

> <IC50 nM>
12.59

> <Molecule_ChEMBL_ID>
CHEMBL1668079

> <Smiles>
Cc1cc(C)c(S(=O)(=O)N[C@@H](C)CNc2cc(C)cc3c2cnn3-c2cccc(NCC(N)=O)c2)c(C)c1

$$$$
CHEMBL5289101
  SciTegic08162514323D

 45 48  0  0  0  0            999 V2000
    3.4760   -0.7090    0.4980 S   0  0
    3.6390    0.0000   -0.7580 O   0  0
    3.4490    0.1700    1.6540 O   0  0
    2.0530   -1.4810    0.4410 N   0  0
    4.7990   -1.8030    0.6800 C   0  0
    0.9160   -0.7830    0.3050 C   0  0
    4.8910   -2.6100    1.8260 C   0  0
    5.7830   -1.8830   -0.3220 C   0  0
   -0.3320   -1.4470    0.2540 C   0  0
    0.9490    0.6270    0.2070 C   0  0
    5.9690   -3.5000    1.9730 C   0  0
    6.8610   -2.7740   -0.1740 C   0  0
   -1.5410   -0.7190    0.1090 C   0  0
   -0.2460    1.3630    0.0630 C   0  0
    6.9530   -3.5820    0.9730 C   0  0
   -1.5140    0.7110    0.0120 C   0  0
   -2.8220   -1.4690    0.0590 C   0  0
   -2.6780    1.4240   -0.1270 N   0  0
   -4.0040   -0.6090    0.5200 C   0  0
   -2.6880    2.7970   -0.2030 C   0  0
   -4.0040    0.7420   -0.2070 C   0  0
   -1.8130    3.4430    0.3240 O   0  0
   -3.7640    3.4590   -0.9260 C   0  0
   -4.2050    4.6580   -0.4530 O   0  0
   -4.4360    3.0350   -2.0740 C   0  0
   -5.1920    5.0020   -1.3340 C   0  0
   -5.3650    4.0410   -2.3380 C   0  0
    2.0210   -2.4790    0.5100 H   0  0
    4.1350   -2.5470    2.5960 H   0  0
    5.7130   -1.2640   -1.2030 H   0  0
   -0.3750   -2.5260    0.3280 H   0  0
    1.8890    1.1600    0.2400 H   0  0
    6.0390   -4.1210    2.8540 H   0  0
    7.6170   -2.8380   -0.9410 H   0  0
   -0.1600    2.4370   -0.0080 H   0  0
    7.7810   -4.2680    1.0860 H   0  0
   -2.9870   -1.8010   -0.9670 H   0  0
   -2.7700   -2.3670    0.6760 H   0  0
   -3.9440   -0.4470    1.5960 H   0  0
   -4.9440   -1.1330    0.3380 H   0  0
   -4.2540    0.5980   -1.2600 H   0  0
   -4.7810    1.3790    0.2170 H   0  0
   -4.2740    2.1250   -2.6350 H   0  0
   -5.7640    5.9160   -1.2540 H   0  0
   -6.0760    4.0720   -3.1520 H   0  0
  1  2  2  0
  1  3  2  0
  1  4  1  0
  1  5  1  0
  4  6  1  0
  5  7  2  0
  5  8  1  0
  6  9  2  0
  6 10  1  0
  7 11  1  0
  8 12  2  0
  9 13  1  0
 10 14  2  0
 11 15  2  0
 13 16  2  0
 13 17  1  0
 16 18  1  0
 17 19  1  0
 18 20  1  0
 18 21  1  0
 20 22  2  0
 20 23  1  0
 23 24  1  0
 23 25  2  0
 24 26  1  0
 25 27  1  0
 12 15  1  0
 14 16  1  0
 19 21  1  0
 26 27  2  0
  4 28  1  0
  7 29  1  0
  8 30  1  0
  9 31  1  0
 10 32  1  0
 11 33  1  0
 12 34  1  0
 14 35  1  0
 15 36  1  0
 17 37  1  0
 17 38  1  0
 19 39  1  0
 19 40  1  0
 21 41  1  0
 21 42  1  0
 25 43  1  0
 26 44  1  0
 27 45  1  0
M  END
> <Name>
CHEMBL5289101

> <IC50 nM>
1920

> <Molecule_ChEMBL_ID>
CHEMBL5289101

> <Smiles>
O=C(c1ccco1)N1CCCc2cc(NS(=O)(=O)c3ccccc3)ccc21

$$$$
CHEMBL1085625
  SciTegic08162514323D

 49 52  0  0  0  0            999 V2000
   -4.7880   -3.5820   -0.7830 S   0  0
   -5.0530   -2.5900   -1.8090 O   0  0
   -3.7820   -4.5550   -1.1720 O   0  0
   -4.2290   -2.8010    0.5210 N   0  0
   -6.3090   -4.4430   -0.4060 C   0  0
   -3.0690   -2.0760    0.4390 C   0  0
   -6.8290   -5.1780   -1.6450 C   0  0
   -2.5780   -1.3970    1.5700 C   0  0
   -2.3620   -2.0140   -0.7750 C   0  0
   -1.3870   -0.6520    1.4900 C   0  0
   -1.1700   -1.2720   -0.8590 C   0  0
   -0.6800   -0.5900    0.2690 C   0  0
   -0.8970    0.0570    2.7050 C   0  0
    0.5580    0.1740    0.1580 C   0  0
   -1.6180   -0.3560    3.7970 F   0  0
   -1.0530    1.4100    2.5390 F   0  0
    0.4290   -0.2290    2.8980 F   0  0
    1.8120   -0.4980    0.1270 C   0  0
    0.5170    1.5960    0.0800 C   0  0
    3.0090    0.2580    0.0190 C   0  0
    1.7150    2.3440   -0.0270 C   0  0
    2.9370    1.6350   -0.0530 C   0  0
    4.2610   -0.3320   -0.0160 C   0  0
    4.2440    1.9880   -0.1450 N   0  0
    4.9940    0.8340   -0.1210 N   0  0
    4.7420    3.2500   -0.2420 C   0  0
    5.7870    3.5270   -1.1430 C   0  0
    4.2150    4.2810    0.5590 C   0  0
    6.3010    4.8320   -1.2420 C   0  0
    4.7300    5.5840    0.4570 C   0  0
    5.7730    5.8610   -0.4430 C   0  0
    6.2610    7.0960   -0.5390 F   0  0
   -4.7310   -2.8440    1.3850 H   0  0
   -6.1390   -5.1430    0.4120 H   0  0
   -7.0490   -3.7330   -0.0430 H   0  0
   -7.7500   -5.7110   -1.4160 H   0  0
   -7.0140   -4.4790   -2.4590 H   0  0
   -6.0980   -5.9080   -1.9920 H   0  0
   -3.1140   -1.4380    2.5100 H   0  0
   -2.7210   -2.5310   -1.6540 H   0  0
   -0.6410   -1.2340   -1.8030 H   0  0
    1.8530   -1.5780    0.1850 H   0  0
   -0.4280    2.1190    0.1010 H   0  0
    1.6910    3.4220   -0.0860 H   0  0
    4.6130   -1.3560    0.0230 H   0  0
    6.2070    2.7500   -1.7680 H   0  0
    3.4120    4.0880    1.2580 H   0  0
    7.1030    5.0410   -1.9360 H   0  0
    4.3220    6.3710    1.0740 H   0  0
  1  2  2  0
  1  3  2  0
  1  4  1  0
  1  5  1  0
  4  6  1  0
  5  7  1  0
  6  8  2  0
  6  9  1  0
  8 10  1  0
  9 11  2  0
 10 12  2  0
 10 13  1  0
 12 14  1  0
 13 15  1  0
 13 16  1  0
 13 17  1  0
 14 18  2  0
 14 19  1  0
 18 20  1  0
 19 21  2  0
 20 22  2  0
 20 23  1  0
 22 24  1  0
 23 25  2  0
 24 26  1  0
 26 27  2  0
 26 28  1  0
 27 29  1  0
 28 30  2  0
 29 31  2  0
 31 32  1  0
 11 12  1  0
 21 22  1  0
 24 25  1  0
 30 31  1  0
  4 33  1  0
  5 34  1  0
  5 35  1  0
  7 36  1  0
  7 37  1  0
  7 38  1  0
  8 39  1  0
  9 40  1  0
 11 41  1  0
 18 42  1  0
 19 43  1  0
 21 44  1  0
 23 45  1  0
 27 46  1  0
 28 47  1  0
 29 48  1  0
 30 49  1  0
M  END
> <Name>
CHEMBL1085625

> <IC50 nM>
10000

> <Molecule_ChEMBL_ID>
CHEMBL1085625

> <Smiles>
CCS(=O)(=O)Nc1ccc(-c2ccc3c(cnn3-c3ccc(F)cc3)c2)c(C(F)(F)F)c1

$$$$
CHEMBL388017
  SciTegic08162514323D

 62 65  0  0  1  0            999 V2000
    1.5960   -3.2620   -4.2680 Cl  0  0
   -0.0180   -2.6820   -4.3960 C   0  0
   -0.7500   -2.2870   -3.2540 C   0  0
   -0.6150   -2.6000   -5.6700 C   0  0
   -2.0680   -1.8180   -3.3960 C   0  0
   -0.1540   -2.3560   -1.8910 C   0  0
   -1.9320   -2.1330   -5.8050 C   0  0
   -2.6580   -1.7400   -4.6680 C   0  0
   -1.1390   -1.8750   -0.8220 C   0  0
   -0.5060   -1.9690    0.4340 O   0  0
   -1.3480   -1.6110    1.5060 C   0  0  2  0  0  0
   -1.6560   -0.1350    1.4360 C   0  0
   -0.6520   -2.0020    2.8110 C   0  0
   -0.5700    0.8890    1.4860 C   0  0
   -2.9390    0.2580    1.3260 C   0  0
   -0.9020    2.2710    1.4160 C   0  0
    0.7870    0.4880    1.6060 C   0  0
   -3.3420    1.7210    1.2480 C   0  0
   -2.1930    2.6740    1.3030 N   0  0
    0.1390    3.2360    1.4670 C   0  0
    1.8180    1.4550    1.6540 C   0  0
   -4.0940    1.9390   -0.0660 C   0  0
   -4.2750    2.0200    2.4260 C   0  0
    1.4860    2.8300    1.5840 C   0  0
    3.2110    1.0410    1.7770 C   0  0
    3.9730    0.7380    0.6270 C   0  0
    3.7950    0.9430    3.0550 C   0  0
    3.4490    0.8220   -0.5800 O   0  0
    5.3150    0.3400    0.7700 C   0  0
    5.1370    0.5450    3.1880 C   0  0
    4.3110    0.6460   -1.6950 C   0  0
    5.8970    0.2440    2.0450 C   0  0
   -0.0680   -2.8970   -6.5550 H   0  0
   -2.6350   -1.5140   -2.5270 H   0  0
    0.1660   -3.3770   -1.6860 H   0  0
    0.7620   -1.7660   -1.8630 H   0  0
   -2.3870   -2.0720   -6.7810 H   0  0
   -3.6720   -1.3810   -4.7710 H   0  0
   -1.4080   -0.8320   -0.9900 H   0  0
   -2.0270   -2.5080   -0.8050 H   0  0
   -2.2890   -2.1520    1.3950 H   0  0
   -1.2440   -2.7090    3.3910 H   0  0
   -0.4800   -1.1230    3.4340 H   0  0
    0.3150   -2.4610    2.6090 H   0  0
   -3.7170   -0.4920    1.2890 H   0  0
    1.0370   -0.5630    1.6580 H   0  0
   -2.4100    3.6500    1.2500 H   0  0
   -0.0840    4.2930    1.4140 H   0  0
   -3.4650    1.7360   -0.9340 H   0  0
   -4.4450    2.9690   -0.1430 H   0  0
   -4.9650    1.2850   -0.1250 H   0  0
   -3.7790    1.8770    3.3850 H   0  0
   -5.1480    1.3670    2.4000 H   0  0
   -4.6290    3.0490    2.3830 H   0  0
    2.2600    3.5860    1.6210 H   0  0
    3.2250    1.1720    3.9430 H   0  0
    5.9040    0.1070   -0.1050 H   0  0
    5.5820    0.4730    4.1680 H   0  0
    3.7190    0.7480   -2.6030 H   0  0
    5.1510    1.3340   -1.5880 H   0  0
    4.7050   -0.3690   -1.6660 H   0  0
    6.9260   -0.0630    2.1490 H   0  0
  1  2  1  0
  2  3  2  0
  2  4  1  0
  3  5  1  0
  3  6  1  0
  4  7  2  0
  5  8  2  0
  6  9  1  0
  9 10  1  0
 10 11  1  0
 11 12  1  0
 11 13  1  0
 12 14  1  0
 12 15  2  0
 14 16  2  0
 14 17  1  0
 15 18  1  0
 16 19  1  0
 16 20  1  0
 17 21  2  0
 18 22  1  0
 18 23  1  0
 20 24  2  0
 21 25  1  0
 25 26  2  0
 25 27  1  0
 26 28  1  0
 26 29  1  0
 27 30  2  0
 28 31  1  0
 29 32  2  0
  7  8  1  0
 18 19  1  0
 21 24  1  0
 30 32  1  0
  4 33  1  0
  5 34  1  0
  6 35  1  0
  6 36  1  0
  7 37  1  0
  8 38  1  0
  9 39  1  0
  9 40  1  0
 11 41  1  0
 13 42  1  0
 13 43  1  0
 13 44  1  0
 15 45  1  0
 17 46  1  0
 19 47  1  0
 20 48  1  0
 22 49  1  0
 22 50  1  0
 22 51  1  0
 23 52  1  0
 23 53  1  0
 23 54  1  0
 24 55  1  0
 27 56  1  0
 29 57  1  0
 30 58  1  0
 31 59  1  0
 31 60  1  0
 31 61  1  0
 32 62  1  0
M  END
> <Name>
CHEMBL388017

> <IC50 nM>
290

> <Molecule_ChEMBL_ID>
CHEMBL388017

> <Smiles>
COc1ccccc1-c1ccc2c(c1)C(C(C)OCCc1ccccc1Cl)=CC(C)(C)N2

$$$$
CHEMBL228878
  SciTegic08162514323D

 59 61  0  0  1  0            999 V2000
   -1.2680   -2.3690   -0.0060 O   0  0
   -1.1370   -1.9260   -1.3360 C   0  0  2  0  0  0
   -0.2460   -1.8910    0.8420 C   0  0
   -1.4430   -0.4490   -1.4060 C   0  0
   -2.0720   -2.7580   -2.2130 C   0  0
   -0.4610   -2.4200    2.2340 C   0  0
   -0.3570    0.5740   -1.3570 C   0  0
   -2.7290   -0.0550   -1.5180 C   0  0
   -1.3180   -1.7740    3.0410 C   0  0
   -0.6890    1.9570   -1.4280 C   0  0
    0.9980    0.1740   -1.2380 C   0  0
   -3.1310    1.4080   -1.5940 C   0  0
   -1.5310   -2.3030    4.4340 C   0  0
   -1.9820    2.3590   -1.5410 N   0  0
    0.3500    2.9220   -1.3770 C   0  0
    2.0310    1.1420   -1.1890 C   0  0
   -3.8830    1.6250   -2.9100 C   0  0
   -4.0630    1.7070   -0.4180 C   0  0
   -1.3280   -1.2310    5.5040 C   0  0
    1.6990    2.5180   -1.2580 C   0  0
    3.4220    0.7280   -1.0660 C   0  0
    4.2210    1.1990   -0.0020 C   0  0
    3.9690   -0.1500   -2.0210 C   0  0
    3.7310    2.0210    0.9040 O   0  0
    5.5610    0.7850    0.0960 C   0  0
    5.3090   -0.5590   -1.9180 C   0  0
    2.8010    1.5020    1.8440 C   0  0
    6.1060   -0.0920   -0.8590 C   0  0
   -0.1000   -2.0650   -1.6410 H   0  0
    0.7090   -2.2420    0.4550 H   0  0
   -0.2950   -0.8010    0.8500 H   0  0
   -2.1880   -2.3280   -3.2070 H   0  0
   -3.0630   -2.8240   -1.7640 H   0  0
   -1.6910   -3.7720   -2.3300 H   0  0
    0.0980   -3.3050    2.5020 H   0  0
   -3.5040   -0.8070   -1.5530 H   0  0
   -1.7910   -0.9040    2.6110 H   0  0
    1.2500   -0.8750   -1.1850 H   0  0
   -2.5610   -2.6470    4.5450 H   0  0
   -0.8750   -3.1540    4.6110 H   0  0
   -2.1970    3.3380   -1.5940 H   0  0
    0.1290    3.9780   -1.4300 H   0  0
   -3.2540    1.4200   -3.7750 H   0  0
   -4.2310    2.6560   -2.9880 H   0  0
   -4.7540    0.9750   -2.9670 H   0  0
   -3.5660    1.5660    0.5410 H   0  0
   -4.9340    1.0510   -0.4410 H   0  0
   -4.4200    2.7340   -0.4630 H   0  0
   -1.4880   -1.6450    6.5000 H   0  0
   -0.3200   -0.8180    5.4490 H   0  0
   -2.0310   -0.4100    5.3670 H   0  0
    2.4710    3.2710   -1.2230 H   0  0
    3.3710   -0.5200   -2.8440 H   0  0
    6.1780    1.1410    0.9060 H   0  0
    5.7270   -1.2330   -2.6500 H   0  0
    2.4430    2.1910    2.6090 H   0  0
    3.2600    0.6520    2.3460 H   0  0
    1.9320    1.1350    1.2950 H   0  0
    7.1370   -0.4040   -0.7790 H   0  0
  1  2  1  0
  1  3  1  0
  2  4  1  0
  2  5  1  0
  3  6  1  0
  4  7  1  0
  4  8  2  0
  6  9  2  0
  7 10  2  0
  7 11  1  0
  8 12  1  0
  9 13  1  0
 10 14  1  0
 10 15  1  0
 11 16  2  0
 12 17  1  0
 12 18  1  0
 13 19  1  0
 15 20  2  0
 16 21  1  0
 21 22  2  0
 21 23  1  0
 22 24  1  0
 22 25  1  0
 23 26  2  0
 24 27  1  0
 25 28  2  0
 12 14  1  0
 16 20  1  0
 26 28  1  0
  2 29  1  0
  3 30  1  0
  3 31  1  0
  5 32  1  0
  5 33  1  0
  5 34  1  0
  6 35  1  0
  8 36  1  0
  9 37  1  0
 11 38  1  0
 13 39  1  0
 13 40  1  0
 14 41  1  0
 15 42  1  0
 17 43  1  0
 17 44  1  0
 17 45  1  0
 18 46  1  0
 18 47  1  0
 18 48  1  0
 19 49  1  0
 19 50  1  0
 19 51  1  0
 20 52  1  0
 23 53  1  0
 25 54  1  0
 26 55  1  0
 27 56  1  0
 27 57  1  0
 27 58  1  0
 28 59  1  0
M  END
> <Name>
CHEMBL228878

> <IC50 nM>
565

> <Molecule_ChEMBL_ID>
CHEMBL228878

> <Smiles>
CC/C=C/COC(C)C1=CC(C)(C)Nc2ccc(-c3ccccc3OC)cc21

$$$$
CHEMBL394343
  SciTegic08162514323D

 59 61  0  0  1  0            999 V2000
   -0.5490   -1.8910    0.1410 O   0  0
   -1.4880   -1.5580    1.1390 C   0  0  2  0  0  0
   -1.0530   -1.7400   -1.1660 C   0  0
   -1.7950   -0.0820    1.0680 C   0  0
   -0.9120   -1.9710    2.4940 C   0  0
   -0.0630   -2.3010   -2.1520 C   0  0
   -0.7090    0.9420    1.1190 C   0  0
   -3.0780    0.3110    0.9570 C   0  0
   -0.4470   -2.4550   -3.4300 C   0  0
   -1.0410    2.3240    1.0490 C   0  0
    0.6480    0.5410    1.2380 C   0  0
   -3.4810    1.7740    0.8810 C   0  0
    0.4060   -3.0170   -4.5330 C   0  0
   -1.8420   -2.0390   -3.8150 C   0  0
   -2.3340    2.7270    0.9340 N   0  0
    0.0000    3.2890    1.0980 C   0  0
    1.6800    1.5100    1.2870 C   0  0
   -4.2340    1.9920   -0.4340 C   0  0
   -4.4140    2.0720    2.0570 C   0  0
    1.3480    2.8830    1.2170 C   0  0
    3.0720    1.0940    1.4080 C   0  0
    3.6470    0.2170    0.4630 C   0  0
    3.8480    1.5760    2.4800 C   0  0
    2.9410   -0.2500   -0.5490 O   0  0
    4.9900   -0.1700    0.6020 C   0  0
    5.1890    1.1860    2.6110 C   0  0
    3.6290   -0.9550   -1.5720 C   0  0
    5.7620    0.3130    1.6720 C   0  0
   -2.4100   -2.1000    0.9320 H   0  0
   -1.1970   -0.6760   -1.3540 H   0  0
   -1.9920   -2.2850   -1.2340 H   0  0
   -1.6820   -2.0270    3.2620 H   0  0
   -0.1600   -1.2540    2.8280 H   0  0
   -0.4340   -2.9470    2.4280 H   0  0
    0.9510   -2.6010   -1.9360 H   0  0
   -3.8560   -0.4390    0.9220 H   0  0
    0.8980   -0.5100    1.2910 H   0  0
    1.2090   -3.6640   -4.1760 H   0  0
    0.8610   -2.2070   -5.1020 H   0  0
   -0.2090   -3.6010   -5.2190 H   0  0
   -2.1250   -1.0580   -3.4320 H   0  0
   -2.5630   -2.7640   -3.4380 H   0  0
   -1.9340   -2.0100   -4.9010 H   0  0
   -2.5490    3.7050    0.8830 H   0  0
   -0.2230    4.3460    1.0470 H   0  0
   -3.6040    1.7890   -1.3010 H   0  0
   -4.5860    3.0220   -0.5100 H   0  0
   -5.1040    1.3380   -0.4940 H   0  0
   -3.9180    1.9300    3.0180 H   0  0
   -5.2870    1.4200    2.0330 H   0  0
   -4.7700    3.1040    2.0160 H   0  0
    2.1190    3.6390    1.2540 H   0  0
    3.4220    2.2500    3.2130 H   0  0
    5.4360   -0.8420   -0.1170 H   0  0
    5.7830    1.5570    3.4360 H   0  0
    2.9080   -1.2280   -2.3420 H   0  0
    4.4730   -0.3460   -1.8970 H   0  0
    4.0250   -1.8750   -1.1450 H   0  0
    6.7950    0.0120    1.7730 H   0  0
  1  2  1  0
  1  3  1  0
  2  4  1  0
  2  5  1  0
  3  6  1  0
  4  7  1  0
  4  8  2  0
  6  9  2  0
  7 10  2  0
  7 11  1  0
  8 12  1  0
  9 13  1  0
  9 14  1  0
 10 15  1  0
 10 16  1  0
 11 17  2  0
 12 18  1  0
 12 19  1  0
 16 20  2  0
 17 21  1  0
 21 22  2  0
 21 23  1  0
 22 24  1  0
 22 25  1  0
 23 26  2  0
 24 27  1  0
 25 28  2  0
 12 15  1  0
 17 20  1  0
 26 28  1  0
  2 29  1  0
  3 30  1  0
  3 31  1  0
  5 32  1  0
  5 33  1  0
  5 34  1  0
  6 35  1  0
  8 36  1  0
 11 37  1  0
 13 38  1  0
 13 39  1  0
 13 40  1  0
 14 41  1  0
 14 42  1  0
 14 43  1  0
 15 44  1  0
 16 45  1  0
 18 46  1  0
 18 47  1  0
 18 48  1  0
 19 49  1  0
 19 50  1  0
 19 51  1  0
 20 52  1  0
 23 53  1  0
 25 54  1  0
 26 55  1  0
 27 56  1  0
 27 57  1  0
 27 58  1  0
 28 59  1  0
M  END
> <Name>
CHEMBL394343

> <IC50 nM>
395

> <Molecule_ChEMBL_ID>
CHEMBL394343

> <Smiles>
COc1ccccc1-c1ccc2c(c1)C(C(C)OCC=C(C)C)=CC(C)(C)N2

$$$$
CHEMBL228326
  SciTegic08162514323D

 49 51  0  0  1  0            999 V2000
    0.2130    0.3340    0.1970 O   0  0
   -1.1520    0.4380   -0.1210 C   0  0  2  0  0  0
    0.9470    0.0160   -0.9590 C   0  0  1  0  0  0
   -1.9770    0.4260    1.1170 C   0  0
   -1.3540   -0.7810   -1.0240 C   0  0  2  0  0  0
    2.1970   -0.6990   -0.5840 C   0  0
   -0.0310   -0.8180   -1.8170 C   0  0  1  0  0  0
   -2.8950    1.4630    1.3610 C   0  0
   -1.8420   -0.6190    2.0470 C   0  0
   -2.6230   -0.6780   -1.8690 C   0  0
    3.4490   -0.1460   -0.9060 C   0  0
    2.1310   -1.9280    0.0960 C   0  0
   -0.1430   -0.1890   -3.2070 C   0  0
   -3.6760    1.4590    2.5310 C   0  0
   -2.6210   -0.6270    3.2150 C   0  0
    4.6330   -0.8180   -0.5530 C   0  0
    3.3130   -2.6000    0.4490 C   0  0
   -4.5330    2.4340    2.7520 O   0  0
   -3.5390    0.4100    3.4590 C   0  0
    5.8030   -0.2930   -0.8590 O   0  0
    4.5640   -2.0490    0.1270 C   0  0
   -4.6330    3.4670    1.7830 C   0  0
   -4.2680    0.3970    4.5590 O   0  0
    5.8180    0.8890   -1.6470 C   0  0
    5.6680   -2.6860    0.4630 O   0  0
   -1.3110    1.3590   -0.6620 H   0  0
    1.2030    0.9470   -1.4430 H   0  0
   -1.4120   -1.6800   -0.4220 H   0  0
    0.2870   -1.8460   -1.9280 H   0  0
   -3.0020    2.2700    0.6500 H   0  0
   -1.1390   -1.4200    1.8650 H   0  0
   -3.5240   -0.6930   -1.2560 H   0  0
   -2.6840   -1.5080   -2.5740 H   0  0
   -2.6270    0.2480   -2.4450 H   0  0
    3.5060    0.7970   -1.4300 H   0  0
    1.1720   -2.3590    0.3480 H   0  0
    0.8180   -0.1560   -3.7170 H   0  0
   -0.5200    0.8320   -3.1390 H   0  0
   -0.8320   -0.7580   -3.8320 H   0  0
   -2.5140   -1.4340    3.9260 H   0  0
    3.2560   -3.5450    0.9730 H   0  0
   -5.3500    4.2640    1.9880 H   0  0
   -4.9020    3.0160    0.8280 H   0  0
   -3.6500    3.9240    1.6700 H   0  0
   -4.1620   -0.3300    5.1860 H   0  0
    6.8560    1.1910   -1.7870 H   0  0
    5.2420    0.7030   -2.5550 H   0  0
    5.3130    1.6760   -1.0880 H   0  0
    6.5250   -2.2990    0.2360 H   0  0
  1  2  1  0
  1  3  1  0
  2  4  1  0
  2  5  1  0
  3  6  1  0
  3  7  1  0
  4  8  2  0
  4  9  1  0
  5 10  1  0
  6 11  2  0
  6 12  1  0
  7 13  1  0
  8 14  1  0
  9 15  2  0
 11 16  1  0
 12 17  2  0
 14 18  1  0
 14 19  2  0
 16 20  1  0
 16 21  2  0
 18 22  1  0
 19 23  1  0
 20 24  1  0
 21 25  1  0
  5  7  1  0
 15 19  1  0
 17 21  1  0
  2 26  1  0
  3 27  1  0
  5 28  1  0
  7 29  1  0
  8 30  1  0
  9 31  1  0
 10 32  1  0
 10 33  1  0
 10 34  1  0
 11 35  1  0
 12 36  1  0
 13 37  1  0
 13 38  1  0
 13 39  1  0
 15 40  1  0
 17 41  1  0
 22 42  1  0
 22 43  1  0
 22 44  1  0
 23 45  1  0
 24 46  1  0
 24 47  1  0
 24 48  1  0
 25 49  1  0
M  END
> <Name>
CHEMBL228326

> <IC50 nM>
27000

> <Molecule_ChEMBL_ID>
CHEMBL228326

> <Smiles>
COc1cc([C@H]2O[C@@H](c3ccc(O)c(OC)c3)[C@H](C)[C@@H]2C)ccc1O

$$$$
CHEMBL337856
  SciTegic08162514323D

 54 58  0  0  0  0            999 V2000
    4.8360   -1.7440   -0.0210 F   0  0
    4.0740   -1.8930   -1.1030 C   0  0
    2.7340   -1.4340   -1.0980 C   0  0
    4.6090   -2.5060   -2.2580 C   0  0
    2.2680   -0.8160    0.0120 O   0  0
    1.9060   -1.6130   -2.2540 C   0  0
    3.8090   -2.6660   -3.4100 C   0  0
    1.0250   -0.3090    0.0570 C   0  0
    0.4860   -1.1680   -2.1990 C   0  0
    2.4670   -2.2290   -3.4100 C   0  0
   -0.0160   -0.6560   -0.9690 C   0  0
    0.7870    0.5920    1.0390 C   0  0
   -0.3790   -1.2270   -3.3260 C   0  0
   -1.4320   -0.4980   -0.7950 C   0  0
    1.7970    0.9120    2.0980 C   0  0
   -1.7270   -0.8240   -3.2110 C   0  0
   -2.2640   -0.4530   -1.9530 C   0  0
   -2.0980   -0.4260    0.5530 C   0  0
    1.9390    2.2280    2.5840 C   0  0
    2.6070   -0.1170    2.6110 C   0  0
   -3.5650   -0.0760   -1.8610 N   0  0
   -3.3690    0.0140    0.6350 C   0  0
   -1.4320   -0.8830    1.8280 C   0  0
    2.8950    2.5060    3.5800 C   0  0
    1.0940    3.3320    2.0570 C   0  0
    3.5610    0.1660    3.6060 C   0  0
   -4.1600    0.4320   -0.5920 C   0  0
    3.7030    1.4770    4.0900 C   0  0
   -5.5820   -0.1190   -0.4610 C   0  0
   -4.2070    1.9610   -0.6460 C   0  0
    5.6330   -2.8520   -2.2640 H   0  0
    4.2250   -3.1290   -4.2930 H   0  0
    1.8980   -2.3810   -4.3140 H   0  0
   -0.1450    1.1350    1.0940 H   0  0
   -0.0450   -1.5680   -4.2930 H   0  0
   -2.3400   -0.8130   -4.1020 H   0  0
    2.5060   -1.1290    2.2480 H   0  0
   -4.1560   -0.1170   -2.6700 H   0  0
   -3.8480    0.0700    1.6040 H   0  0
   -2.1270   -1.4840    2.4140 H   0  0
   -0.5220   -1.4340    1.5960 H   0  0
   -1.1540   -0.0180    2.4300 H   0  0
    3.0100    3.5120    3.9570 H   0  0
    1.0330    3.3710    0.9710 H   0  0
    1.4880    4.2890    2.4020 H   0  0
    0.0800    3.2300    2.4450 H   0  0
    4.1820   -0.6250    3.9980 H   0  0
    4.4360    1.6950    4.8540 H   0  0
   -5.5940   -1.2090   -0.4160 H   0  0
   -6.1940    0.1850   -1.3090 H   0  0
   -6.0590    0.2560    0.4450 H   0  0
   -3.2110    2.3940   -0.7380 H   0  0
   -4.6640    2.3630    0.2580 H   0  0
   -4.7990    2.2970   -1.4980 H   0  0
  1  2  1  0
  2  3  2  0
  2  4  1  0
  3  5  1  0
  3  6  1  0
  4  7  2  0
  5  8  1  0
  6  9  1  0
  6 10  2  0
  8 11  1  0
  8 12  2  0
  9 13  2  0
 11 14  2  0
 12 15  1  0
 13 16  1  0
 14 17  1  0
 14 18  1  0
 15 19  2  0
 15 20  1  0
 17 21  1  0
 18 22  2  0
 18 23  1  0
 19 24  1  0
 19 25  1  0
 20 26  2  0
 21 27  1  0
 24 28  2  0
 27 29  1  0
 27 30  1  0
  7 10  1  0
  9 11  1  0
 16 17  2  0
 22 27  1  0
 26 28  1  0
  4 31  1  0
  7 32  1  0
 10 33  1  0
 12 34  1  0
 13 35  1  0
 16 36  1  0
 20 37  1  0
 21 38  1  0
 22 39  1  0
 23 40  1  0
 23 41  1  0
 23 42  1  0
 24 43  1  0
 25 44  1  0
 25 45  1  0
 25 46  1  0
 26 47  1  0
 28 48  1  0
 29 49  1  0
 29 50  1  0
 29 51  1  0
 30 52  1  0
 30 53  1  0
 30 54  1  0
M  END
> <Name>
CHEMBL337856

> <IC50 nM>
297

> <Molecule_ChEMBL_ID>
CHEMBL337856

> <Smiles>
CC1=CC(C)(C)Nc2ccc3c(c21)/C(=C/c1ccccc1C)Oc1c(F)cccc1-3

$$$$
CHEMBL130141
  SciTegic08162514323D

 53 57  0  0  0  0            999 V2000
    3.7320   -5.8770    0.7690 F   0  0
    3.3530   -4.6540    0.4060 C   0  0
    2.0700   -4.1780    0.7620 C   0  0
    4.2360   -3.8380   -0.3340 C   0  0
    1.6540   -2.8690    0.3810 C   0  0
    3.8440   -2.5350   -0.7130 C   0  0
    2.5680   -2.0410   -0.3500 C   0  0
    0.3030   -2.3380    0.7010 C   0  0
    2.2480   -0.7770   -0.7010 O   0  0
   -0.0590   -1.0570    0.1890 C   0  0
   -0.6330   -3.0530    1.4980 C   0  0
    1.0780   -0.2290   -0.3400 C   0  0
   -1.4360   -0.6470    0.2240 C   0  0
   -1.9140   -2.5180    1.7440 C   0  0
    1.0040    1.1210   -0.4100 C   0  0
   -2.3260   -1.3150    1.1170 C   0  0
   -2.0020    0.4220   -0.6680 C   0  0
    2.1070    1.9570   -0.9830 C   0  0
   -3.5690   -0.8200    1.3590 N   0  0
   -3.2070    0.9530   -0.3730 C   0  0
   -1.3170    0.8980   -1.9260 C   0  0
    2.4240    3.2190   -0.4400 C   0  0
    2.8500    1.4840   -2.0800 C   0  0
   -4.0180    0.4980    0.8260 C   0  0
    3.4730    3.9690   -1.0120 C   0  0
    1.6740    3.7680    0.7230 C   0  0
    3.8850    2.2810   -2.6080 C   0  0
   -5.4850    0.3850    0.4040 C   0  0
   -3.8850    1.5490    1.9320 C   0  0
    4.1860    3.5000   -2.0760 N   0  0
    1.4300   -4.8420    1.3220 H   0  0
    5.2130   -4.2050   -0.6130 H   0  0
    4.5210   -1.9140   -1.2780 H   0  0
   -0.4010   -4.0080    1.9410 H   0  0
   -2.5780   -3.0490    2.4120 H   0  0
    0.1440    1.6600   -0.0410 H   0  0
   -4.2110   -1.3360    1.9280 H   0  0
   -3.6150    1.7250   -1.0120 H   0  0
   -2.0140    0.8650   -2.7640 H   0  0
   -0.9200    1.9020   -1.7740 H   0  0
   -0.4810    0.2420   -2.1620 H   0  0
    2.6330    0.5210   -2.5220 H   0  0
    3.7210    4.9360   -0.6020 H   0  0
    1.4900    3.0450    1.5170 H   0  0
    0.7090    4.1450    0.3850 H   0  0
    2.2260    4.6020    1.1500 H   0  0
    4.4530    1.9180   -3.4510 H   0  0
   -5.6250   -0.3570   -0.3830 H   0  0
   -5.8540    1.3400    0.0290 H   0  0
   -6.1080    0.0960    1.2500 H   0  0
   -2.8540    1.6640    2.2620 H   0  0
   -4.4850    1.2710    2.8010 H   0  0
   -4.2350    2.5210    1.5840 H   0  0
  1  2  1  0
  2  3  2  0
  2  4  1  0
  3  5  1  0
  4  6  2  0
  5  7  2  0
  5  8  1  0
  7  9  1  0
  8 10  2  0
  8 11  1  0
  9 12  1  0
 10 13  1  0
 11 14  2  0
 12 15  2  0
 13 16  2  0
 13 17  1  0
 15 18  1  0
 16 19  1  0
 17 20  2  0
 17 21  1  0
 18 22  2  0
 18 23  1  0
 19 24  1  0
 22 25  1  0
 22 26  1  0
 23 27  2  0
 24 28  1  0
 24 29  1  0
 25 30  2  0
  6  7  1  0
 10 12  1  0
 14 16  1  0
 20 24  1  0
 27 30  1  0
  3 31  1  0
  4 32  1  0
  6 33  1  0
 11 34  1  0
 14 35  1  0
 15 36  1  0
 19 37  1  0
 20 38  1  0
 21 39  1  0
 21 40  1  0
 21 41  1  0
 23 42  1  0
 25 43  1  0
 26 44  1  0
 26 45  1  0
 26 46  1  0
 27 47  1  0
 28 48  1  0
 28 49  1  0
 28 50  1  0
 29 51  1  0
 29 52  1  0
 29 53  1  0
M  END
> <Name>
CHEMBL130141

> <IC50 nM>
245

> <Molecule_ChEMBL_ID>
CHEMBL130141

> <Smiles>
CC1=CC(C)(C)Nc2ccc3c(c21)/C(=C/c1ccncc1C)Oc1ccc(F)cc1-3

$$$$
CHEMBL413309
  SciTegic08162514323D

 51 55  0  0  0  0            999 V2000
    4.8830   -1.5290    0.0900 F   0  0
    4.1210   -1.6760   -0.9920 C   0  0
    2.7810   -1.2170   -0.9860 C   0  0
    4.6580   -2.2910   -2.1470 C   0  0
    2.3140   -0.6020    0.1230 O   0  0
    1.9530   -1.3980   -2.1430 C   0  0
    3.8570   -2.4510   -3.2970 C   0  0
    1.0740   -0.0940    0.1700 C   0  0
    0.5350   -0.9510   -2.0880 C   0  0
    2.5140   -2.0120   -3.2990 C   0  0
    0.0330   -0.4410   -0.8580 C   0  0
    0.8360    0.8090    1.1520 C   0  0
   -0.3300   -1.0120   -3.2150 C   0  0
   -1.3830   -0.2830   -0.6820 C   0  0
    1.8440    1.1270    2.2110 C   0  0
   -1.6780   -0.6070   -3.1000 C   0  0
   -2.2150   -0.2380   -1.8420 C   0  0
   -2.0490   -0.2110    0.6640 C   0  0
    2.6840    0.1150    2.7130 C   0  0
    1.9550    2.4390    2.7050 C   0  0
   -3.5160    0.1390   -1.7500 N   0  0
   -3.3220    0.2290    0.7460 C   0  0
   -1.3850   -0.6660    1.9410 C   0  0
    3.6310    0.4160    3.7070 C   0  0
    2.9020    2.7380    3.6990 C   0  0
   -4.1110    0.6460   -0.4810 C   0  0
    3.7400    1.7270    4.1990 C   0  0
   -5.5350    0.0960   -0.3500 C   0  0
   -4.1580    2.1760   -0.5350 C   0  0
    5.6820   -2.6370   -2.1510 H   0  0
    4.2730   -2.9140   -4.1800 H   0  0
    1.9450   -2.1660   -4.2030 H   0  0
   -0.0960    1.3500    1.2050 H   0  0
    0.0040   -1.3540   -4.1820 H   0  0
   -2.2930   -0.5960   -3.9900 H   0  0
    2.6050   -0.8960    2.3400 H   0  0
    1.3160    3.2250    2.3260 H   0  0
   -4.1090    0.0980   -2.5590 H   0  0
   -3.8010    0.2850    1.7150 H   0  0
   -2.0820   -1.2620    2.5310 H   0  0
   -0.4790   -1.2270    1.7070 H   0  0
   -1.0980    0.1990    2.5370 H   0  0
    4.2730   -0.3630    4.0920 H   0  0
    2.9880    3.7460    4.0780 H   0  0
    4.4690    1.9570    4.9650 H   0  0
   -5.5470   -0.9940   -0.3110 H   0  0
   -6.1490    0.4060   -1.1950 H   0  0
   -6.0080    0.4670    0.5600 H   0  0
   -3.1640    2.6090   -0.6310 H   0  0
   -4.6110    2.5780    0.3710 H   0  0
   -4.7540    2.5120   -1.3830 H   0  0
  1  2  1  0
  2  3  2  0
  2  4  1  0
  3  5  1  0
  3  6  1  0
  4  7  2  0
  5  8  1  0
  6  9  1  0
  6 10  2  0
  8 11  1  0
  8 12  2  0
  9 13  2  0
 11 14  2  0
 12 15  1  0
 13 16  1  0
 14 17  1  0
 14 18  1  0
 15 19  2  0
 15 20  1  0
 17 21  1  0
 18 22  2  0
 18 23  1  0
 19 24  1  0
 20 25  2  0
 21 26  1  0
 24 27  2  0
 26 28  1  0
 26 29  1  0
  7 10  1  0
  9 11  1  0
 16 17  2  0
 22 26  1  0
 25 27  1  0
  4 30  1  0
  7 31  1  0
 10 32  1  0
 12 33  1  0
 13 34  1  0
 16 35  1  0
 19 36  1  0
 20 37  1  0
 21 38  1  0
 22 39  1  0
 23 40  1  0
 23 41  1  0
 23 42  1  0
 24 43  1  0
 25 44  1  0
 27 45  1  0
 28 46  1  0
 28 47  1  0
 28 48  1  0
 29 49  1  0
 29 50  1  0
 29 51  1  0
M  END
> <Name>
CHEMBL413309

> <IC50 nM>
250

> <Molecule_ChEMBL_ID>
CHEMBL413309

> <Smiles>
CC1=CC(C)(C)Nc2ccc3c(c21)/C(=C/c1ccccc1)Oc1c(F)cccc1-3

$$$$
CHEMBL541765
  SciTegic08162514323D

149157  0  0  1  0            999 V2000
    3.8170    0.4770   -0.0310 S   0  0
    3.9470   -1.1800    0.2110 C   0  0
    5.1170   -1.8750    0.1000 N   0  0
    2.8970   -1.9860    0.5430 N   0  0
    6.3520   -1.1600   -0.2520 C   0  0
    1.5590   -1.3980    0.7110 C   0  0
    7.5410   -2.1190   -0.3220 C   0  0
    1.4260   -0.7230    2.0740 C   0  0
    9.0650   -1.2320   -0.7540 S   0  0
    0.0860   -0.1370    2.2440 N   0  0
   10.2130   -2.6390   -0.7440 C   0  0
   -0.2210    0.5100    3.4060 C   0  0
   11.5980   -2.1580   -1.0820 C   0  0
    0.6000    0.6020    4.2890 O   0  0
   -1.5470    1.0900    3.5760 C   0  0
   11.8220   -0.9840   -1.2640 O   0  0
   12.7010   -3.1880   -1.1890 C   0  0  1  0  0  0
   -1.9770    1.7710    4.6800 N   0  0
   -2.5740    1.0350    2.6290 C   0  0
   12.5980   -3.7750   -2.4770 O   0  0
   14.1230   -2.6210   -0.9570 C   0  0  1  0  0  0
   12.6430   -4.2770   -0.0920 C   0  0  2  0  0  0
   -3.2640    2.1450    4.4410 C   0  0
   -1.2050    2.0510    5.9000 C   0  0
   -3.6620    1.7030    3.1780 C   0  0
   14.9490   -3.9100   -0.8280 C   0  0  2  0  0  0
   14.7640   -1.7830   -2.0800 C   0  0
   14.0900   -1.8480    0.3730 C   0  0
   14.0840   -4.7850    0.0820 C   0  0
   11.6530   -5.4160   -0.3420 C   0  0
   -4.9770    1.9060    2.5510 N   0  0
   16.3870   -3.6270   -0.3590 C   0  0  2  0  0  0
   16.2460   -1.4510   -1.7790 C   0  0  2  0  0  0
   -5.1330    1.6950    1.2090 C   0  0
   17.1120   -2.6930   -1.3750 C   0  0  2  0  0  0
   17.1590   -4.9490   -0.1680 C   0  0
   16.2950   -0.4390   -0.7890 O   0  0
   -4.1930    1.3420    0.5330 O   0  0
   -6.4390    1.8980    0.5980 C   0  0
   17.2440   -3.4100   -2.5490 F   0  0
   18.5670   -2.3750   -0.8790 C   0  0  1  0  0  0
   18.6060   -4.7050    0.2850 C   0  0
   -6.7310    1.7190   -0.7250 N   0  0
   -7.5900    2.3070    1.2790 C   0  0
   19.3230   -3.6680   -0.5590 C   0  0
   19.3030   -1.4840   -1.8770 C   0  0
   18.5610   -1.6020    0.4470 C   0  0
   -8.0510    2.0100   -0.8870 C   0  0
   -5.8030    1.2930   -1.7830 C   0  0
   -8.6090    2.3790    0.3380 C   0  0
   20.5820   -3.8910   -0.9860 C   0  0
   20.5610   -1.7340   -2.2890 C   0  0
  -10.0080    2.7660    0.5860 N   0  0
   21.2910   -2.9140   -1.8200 C   0  0
  -10.9010    2.7950   -0.4450 C   0  0
   22.4540   -3.0760   -2.1130 O   0  0
  -10.5510    2.5020   -1.5640 O   0  0
  -12.2830    3.1800   -0.1890 C   0  0
  -12.6860    4.1700    0.6600 N   0  0
  -13.4020    2.5860   -0.7830 C   0  0
  -14.0450    4.2090    0.6130 C   0  0
  -11.8200    5.0350    1.4790 C   0  0
  -14.5200    3.2400   -0.2730 C   0  0
  -15.9260    2.9650   -0.6040 N   0  0
  -16.9220    3.6930   -0.0160 C   0  0
  -16.6530    4.5640    0.7770 O   0  0
  -18.3110    3.4120   -0.3500 C   0  0
  -18.8440    2.1700   -0.5490 N   0  0
  -19.3070    4.3810   -0.5180 C   0  0
  -20.1620    2.3400   -0.8380 C   0  0
  -18.1330    0.8830   -0.4670 C   0  0
  -20.4810    3.6990   -0.8280 C   0  0
  -21.7970    4.2970   -1.0920 N   0  0
  -22.8640    3.4960   -1.3890 C   0  0
  -22.7310    2.2950   -1.4360 O   0  0
  -24.1640    4.0980   -1.6480 C   0  0
  -24.4180    5.4360   -1.6130 N   0  0
  -25.3030    3.4100   -1.9590 N   0  0
  -25.7250    5.5900   -1.9060 C   0  0
  -26.2760    4.3320   -2.1190 C   0  0
  -25.4520    1.9510   -2.0940 C   0  0
    5.1330   -2.8630    0.2560 H   0  0
    3.0430   -2.9690    0.6700 H   0  0
    6.2110   -0.6480   -1.2030 H   0  0
    6.5330   -0.3750    0.4840 H   0  0
    0.8070   -2.1800    0.5920 H   0  0
    1.3790   -0.6860   -0.0940 H   0  0
    7.6760   -2.6350    0.6290 H   0  0
    7.3580   -2.9040   -1.0550 H   0  0
    2.1760    0.0610    2.1930 H   0  0
    1.6070   -1.4360    2.8790 H   0  0
   -0.5940   -0.2130    1.5140 H   0  0
   10.2130   -3.1020    0.2440 H   0  0
    9.8890   -3.3790   -1.4750 H   0  0
   -2.5270    0.5610    1.6560 H   0  0
   11.7010   -4.1390   -2.5530 H   0  0
   12.3560   -3.8130    0.8400 H   0  0
   -3.8590    2.7030    5.1520 H   0  0
   -0.2870    2.6150    5.7310 H   0  0
   -0.9360    1.1130    6.3850 H   0  0
   -1.8200    2.6210    6.5980 H   0  0
   15.0020   -4.3990   -1.7910 H   0  0
   14.7210   -2.3380   -3.0180 H   0  0
   14.1860   -0.8710   -2.2440 H   0  0
   15.0920   -1.6450    0.7500 H   0  0
   13.5550   -2.4140    1.1350 H   0  0
   13.5800   -0.8930    0.2500 H   0  0
   14.2010   -5.8280   -0.1780 H   0  0
   14.3950   -4.6820    1.1110 H   0  0
   11.6640   -6.1270    0.4860 H   0  0
   10.6410   -5.0270   -0.4610 H   0  0
   11.9100   -5.9590   -1.2500 H   0  0
   -5.7540    2.1970    3.1070 H   0  0
   16.3500   -3.1230    0.6090 H   0  0
   16.6640   -0.9920   -2.6760 H   0  0
   17.1600   -5.5260   -1.0960 H   0  0
   16.6600   -5.5740    0.5740 H   0  0
   15.9080    0.3610   -1.1780 H   0  0
   19.1510   -5.6520    0.2770 H   0  0
   18.6040   -4.3670    1.3220 H   0  0
   -7.6680    2.5270    2.3380 H   0  0
   18.8050   -0.6130   -2.2770 H   0  0
   19.5200   -1.6740    0.9630 H   0  0
   17.7930   -1.9900    1.1170 H   0  0
   18.3520   -0.5450    0.2790 H   0  0
   -8.5570    1.9530   -1.8420 H   0  0
   -5.3540    0.3120   -1.6170 H   0  0
   -4.9940    2.0180   -1.8730 H   0  0
   -6.3280    1.2600   -2.7380 H   0  0
   21.0880   -4.8070   -0.7150 H   0  0
   21.0320   -1.0490   -2.9790 H   0  0
  -10.2990    3.0100    1.5120 H   0  0
  -13.4010    1.7750   -1.5000 H   0  0
  -14.6370    4.9060    1.1930 H   0  0
  -10.8930    5.3300    0.9900 H   0  0
  -11.5630    4.5200    2.4040 H   0  0
  -12.3610    5.9430    1.7440 H   0  0
  -16.1490    2.2440   -1.2600 H   0  0
  -19.1860    5.4510   -0.4240 H   0  0
  -20.8340    1.5160   -1.0430 H   0  0
  -17.3830    0.8340    0.3220 H   0  0
  -17.6350    0.6820   -1.4140 H   0  0
  -18.8520    0.0820   -0.2910 H   0  0
  -21.9100    5.2890   -1.0530 H   0  0
  -26.2230    6.5510   -1.9550 H   0  0
  -27.3010    4.0940   -2.3730 H   0  0
  -25.1860    1.3890   -1.1970 H   0  0
  -24.8210    1.5960   -2.9080 H   0  0
  -26.4850    1.7130   -2.3420 H   0  0
  1  2  2  0
  2  3  1  0
  2  4  1  0
  3  5  1  0
  4  6  1  0
  5  7  1  0
  6  8  1  0
  7  9  1  0
  8 10  1  0
  9 11  1  0
 10 12  1  0
 11 13  1  0
 12 14  2  0
 12 15  1  0
 13 16  2  0
 13 17  1  0
 15 18  1  0
 15 19  2  0
 17 20  1  0
 17 21  1  0
 17 22  1  0
 18 23  1  0
 18 24  1  0
 19 25  1  0
 21 26  1  0
 21 27  1  0
 21 28  1  0
 22 29  1  0
 22 30  1  0
 25 31  1  0
 26 32  1  0
 27 33  1  0
 31 34  1  0
 32 35  1  0
 32 36  1  0
 33 37  1  0
 34 38  2  0
 34 39  1  0
 35 40  1  0
 35 41  1  0
 36 42  1  0
 39 43  1  0
 39 44  2  0
 41 45  1  0
 41 46  1  0
 41 47  1  0
 43 48  1  0
 43 49  1  0
 44 50  1  0
 45 51  2  0
 46 52  2  0
 50 53  1  0
 51 54  1  0
 53 55  1  0
 54 56  2  0
 55 57  2  0
 55 58  1  0
 58 59  1  0
 58 60  2  0
 59 61  1  0
 59 62  1  0
 60 63  1  0
 63 64  1  0
 64 65  1  0
 65 66  2  0
 65 67  1  0
 67 68  1  0
 67 69  2  0
 68 70  1  0
 68 71  1  0
 69 72  1  0
 72 73  1  0
 73 74  1  0
 74 75  2  0
 74 76  1  0
 76 77  2  0
 76 78  1  0
 77 79  1  0
 78 80  1  0
 78 81  1  0
 23 25  2  0
 26 29  1  0
 33 35  1  0
 42 45  1  0
 48 50  2  0
 52 54  1  0
 61 63  2  0
 70 72  2  0
 79 80  2  0
  3 82  1  0
  4 83  1  0
  5 84  1  0
  5 85  1  0
  6 86  1  0
  6 87  1  0
  7 88  1  0
  7 89  1  0
  8 90  1  0
  8 91  1  0
 10 92  1  0
 11 93  1  0
 11 94  1  0
 19 95  1  0
 20 96  1  0
 22 97  1  0
 23 98  1  0
 24 99  1  0
 24100  1  0
 24101  1  0
 26102  1  0
 27103  1  0
 27104  1  0
 28105  1  0
 28106  1  0
 28107  1  0
 29108  1  0
 29109  1  0
 30110  1  0
 30111  1  0
 30112  1  0
 31113  1  0
 32114  1  0
 33115  1  0
 36116  1  0
 36117  1  0
 37118  1  0
 42119  1  0
 42120  1  0
 44121  1  0
 46122  1  0
 47123  1  0
 47124  1  0
 47125  1  0
 48126  1  0
 49127  1  0
 49128  1  0
 49129  1  0
 51130  1  0
 52131  1  0
 53132  1  0
 60133  1  0
 61134  1  0
 62135  1  0
 62136  1  0
 62137  1  0
 64138  1  0
 69139  1  0
 70140  1  0
 71141  1  0
 71142  1  0
 71143  1  0
 73144  1  0
 79145  1  0
 80146  1  0
 81147  1  0
 81148  1  0
 81149  1  0
M  END
> <Name>
CHEMBL541765

> <IC50 nM>
34

> <Molecule_ChEMBL_ID>
CHEMBL541765

> <Smiles>
C[C@H]1C[C@@H]2[C@H]3CCC4=CC(=O)C=C[C@@]4(C)[C@]3(F)[C@H](O)C[C@@]2(C)[C@]1(O)C(=O)CSCCNC(=S)NCCNC(=O)c1cc(NC(=O)c2cc(NC(=O)c3cc(NC(=O)c4cc(NC(=O)c5nccn5C)cn4C)cn3C)cn2C)cn1C

$$$$
CHEMBL539699
  SciTegic08162514323D

131136  0  0  1  0            999 V2000
    0.7190    2.9590    2.7360 S   0  0
    0.5880    1.3030    2.9880 C   0  0
   -0.5860    0.6090    2.8950 N   0  0
    1.6410    0.4960    3.3110 N   0  0
   -1.8240    1.3260    2.5550 C   0  0
    2.9820    1.0800    3.4510 C   0  0
   -3.0140    0.3690    2.5020 C   0  0
    4.0120    0.0100    3.8140 C   0  0
   -4.5410    1.2560    2.0820 S   0  0
    5.4220    0.5760    3.9730 C   0  0
   -5.6920   -0.1490    2.1110 C   0  0
    6.3810   -0.4940    4.1840 N   0  0
   -7.0800    0.3320    1.7830 C   0  0
    7.7290   -0.0330    3.9020 C   0  0
    6.2890   -1.0000    5.5430 C   0  0
   -7.3070    1.5080    1.6110 O   0  0
   -8.1820   -0.6960    1.6780 C   0  0  2  0  0  0
    8.0080   -0.0780    2.3980 C   0  0
   -8.0780   -1.2830    0.3910 O   0  0
   -9.6060   -0.1290    1.9080 C   0  0  2  0  0  0
   -8.1230   -1.7870    2.7730 C   0  0  1  0  0  0
    9.4380    0.3360    2.0510 C   0  0
  -10.4300   -1.4180    2.0390 C   0  0  1  0  0  0
  -10.2440    0.7090    0.7850 C   0  0
   -9.5710    0.6440    3.2380 C   0  0
   -9.5670   -2.2930    2.9490 C   0  0
   -7.1350   -2.9260    2.5220 C   0  0
    9.6640    0.2790    0.6000 N   0  0
  -11.8690   -1.1350    2.5060 C   0  0  1  0  0  0
  -11.7270    1.0430    1.0880 C   0  0  1  0  0  0
   10.8910    0.6170    0.1000 C   0  0
  -12.5920   -0.2010    1.4900 C   0  0  1  0  0  0
  -12.6410   -2.4570    2.6970 C   0  0
  -11.7740    2.0530    2.0760 O   0  0
   11.7790    0.9610    0.8420 O   0  0
   11.1060    0.5530   -1.3890 C   0  0
  -12.7230   -0.9180    0.3160 F   0  0
  -14.0470    0.1170    1.9860 C   0  0  2  0  0  0
  -14.0880   -2.2130    3.1520 C   0  0
   12.5350    0.9200   -1.7890 C   0  0
  -14.8030   -1.1740    2.3070 C   0  0
  -14.7820    1.0060    0.9860 C   0  0
  -14.0410    0.8920    3.3130 C   0  0
   12.7090    0.8490   -3.2460 N   0  0
  -16.0650   -1.3990    1.8770 C   0  0
  -16.0390    0.7600    0.5740 C   0  0
   13.9260    1.1440   -3.7910 C   0  0
  -16.7720   -0.4200    1.0470 C   0  0
   14.8520    1.4590   -3.0820 O   0  0
   14.1020    1.0760   -5.2360 C   0  0
  -17.9360   -0.5800    0.7520 O   0  0
   15.2620    1.3440   -5.9060 N   0  0
   13.1040    0.7220   -6.1500 C   0  0
   15.0080    1.1640   -7.2330 C   0  0
   16.5470    1.7480   -5.3180 C   0  0
   13.6780    0.7810   -7.4140 C   0  0
   13.0140    0.4920   -8.6950 N   0  0
   11.6990    0.1250   -8.7150 C   0  0
   11.0740    0.0350   -7.6840 O   0  0
   11.0510   -0.1580   -9.9880 C   0  0
   11.6660   -0.0860  -11.2010 N   0  0
    9.7460   -0.5330  -10.1430 N   0  0
   10.7400   -0.4180  -12.1250 C   0  0
    9.5490   -0.6960  -11.4690 C   0  0
    8.7460   -0.7250   -9.0800 C   0  0
   -0.6020   -0.3770    3.0570 H   0  0
    1.4920   -0.4850    3.4470 H   0  0
   -1.9940    2.1130    3.2890 H   0  0
   -1.6930    1.8340    1.5980 H   0  0
    2.9530    1.8610    4.2130 H   0  0
    3.2560    1.5800    2.5220 H   0  0
   -2.8400   -0.4220    1.7710 H   0  0
   -3.1410   -0.1410    3.4570 H   0  0
    4.0000   -0.7990    3.0820 H   0  0
    3.7090   -0.5280    4.7130 H   0  0
    5.4650    1.2730    4.8110 H   0  0
    5.7070    1.1520    3.0920 H   0  0
   -5.3750   -0.8930    1.3790 H   0  0
   -5.6820   -0.6060    3.1000 H   0  0
    8.4450   -0.6510    4.4450 H   0  0
    7.8560    0.9780    4.2850 H   0  0
    5.3050   -1.3830    5.8130 H   0  0
    6.5410   -0.2030    6.2440 H   0  0
    7.0100   -1.8050    5.6800 H   0  0
    7.2870    0.5310    1.8540 H   0  0
    7.7850   -1.0670    1.9960 H   0  0
   -7.1840   -1.6490    0.3120 H   0  0
   -7.8340   -1.3220    3.7070 H   0  0
   10.1580   -0.3090    2.5530 H   0  0
    9.6430    1.3460    2.4060 H   0  0
  -10.4850   -1.9060    1.0740 H   0  0
  -10.2010    0.1540   -0.1520 H   0  0
   -9.6660    1.6210    0.6210 H   0  0
  -10.5730    0.8470    3.6170 H   0  0
   -9.0610    1.6010    3.1150 H   0  0
   -9.0350    0.0780    4.0000 H   0  0
   -9.6840   -3.3360    2.6910 H   0  0
   -9.8730   -2.1880    3.9790 H   0  0
   -7.1290   -3.6250    3.3590 H   0  0
   -7.3910   -3.4650    1.6110 H   0  0
   -6.1210   -2.5390    2.4060 H   0  0
    8.9300   -0.0040   -0.0160 H   0  0
  -11.8300   -0.6310    3.4750 H   0  0
  -12.1430    1.5000    0.1890 H   0  0
  -12.6450   -3.0310    1.7700 H   0  0
  -12.1430   -3.0840    3.4380 H   0  0
  -12.1100    2.8570    1.6480 H   0  0
   10.9450   -0.4650   -1.7440 H   0  0
   10.3870    1.1970   -1.8970 H   0  0
  -14.6330   -3.1560    3.1450 H   0  0
  -14.0840   -1.8710    4.1880 H   0  0
   13.2520    0.2520   -1.3110 H   0  0
   12.7850    1.9240   -1.4450 H   0  0
  -14.2830    1.8790    0.5860 H   0  0
  -14.9980    0.8140    3.8300 H   0  0
  -13.8400    1.9490    3.1410 H   0  0
  -13.2700    0.5100    3.9790 H   0  0
   11.9430    0.5900   -3.8360 H   0  0
  -16.5710   -2.3110    2.1500 H   0  0
  -16.5100    1.4430   -0.1150 H   0  0
   12.0800    0.4590   -5.9160 H   0  0
   15.7540    1.3100   -8.0020 H   0  0
   16.5350    1.8340   -4.2310 H   0  0
   16.8460    2.7150   -5.7250 H   0  0
   17.3150    1.0230   -5.5880 H   0  0
   13.5290    0.5660   -9.5490 H   0  0
   10.9360   -0.4490  -13.1900 H   0  0
    8.6060   -0.9940  -11.9080 H   0  0
    9.1190   -0.5390   -8.0740 H   0  0
    8.3710   -1.7480   -9.1130 H   0  0
    7.9020   -0.0570   -9.2520 H   0  0
  1  2  2  0
  2  3  1  0
  2  4  1  0
  3  5  1  0
  4  6  1  0
  5  7  1  0
  6  8  1  0
  7  9  1  0
  8 10  1  0
  9 11  1  0
 10 12  1  0
 11 13  1  0
 12 14  1  0
 12 15  1  0
 13 16  2  0
 13 17  1  0
 14 18  1  0
 17 19  1  0
 17 20  1  0
 17 21  1  0
 18 22  1  0
 20 23  1  0
 20 24  1  0
 20 25  1  0
 21 26  1  0
 21 27  1  0
 22 28  1  0
 23 29  1  0
 24 30  1  0
 28 31  1  0
 29 32  1  0
 29 33  1  0
 30 34  1  0
 31 35  2  0
 31 36  1  0
 32 37  1  0
 32 38  1  0
 33 39  1  0
 36 40  1  0
 38 41  1  0
 38 42  1  0
 38 43  1  0
 40 44  1  0
 41 45  2  0
 42 46  2  0
 44 47  1  0
 45 48  1  0
 47 49  2  0
 47 50  1  0
 48 51  2  0
 50 52  1  0
 50 53  2  0
 52 54  1  0
 52 55  1  0
 53 56  1  0
 56 57  1  0
 57 58  1  0
 58 59  2  0
 58 60  1  0
 60 61  2  0
 60 62  1  0
 61 63  1  0
 62 64  1  0
 62 65  1  0
 23 26  1  0
 30 32  1  0
 39 41  1  0
 46 48  1  0
 54 56  2  0
 63 64  2  0
  3 66  1  0
  4 67  1  0
  5 68  1  0
  5 69  1  0
  6 70  1  0
  6 71  1  0
  7 72  1  0
  7 73  1  0
  8 74  1  0
  8 75  1  0
 10 76  1  0
 10 77  1  0
 11 78  1  0
 11 79  1  0
 14 80  1  0
 14 81  1  0
 15 82  1  0
 15 83  1  0
 15 84  1  0
 18 85  1  0
 18 86  1  0
 19 87  1  0
 21 88  1  0
 22 89  1  0
 22 90  1  0
 23 91  1  0
 24 92  1  0
 24 93  1  0
 25 94  1  0
 25 95  1  0
 25 96  1  0
 26 97  1  0
 26 98  1  0
 27 99  1  0
 27100  1  0
 27101  1  0
 28102  1  0
 29103  1  0
 30104  1  0
 33105  1  0
 33106  1  0
 34107  1  0
 36108  1  0
 36109  1  0
 39110  1  0
 39111  1  0
 40112  1  0
 40113  1  0
 42114  1  0
 43115  1  0
 43116  1  0
 43117  1  0
 44118  1  0
 45119  1  0
 46120  1  0
 53121  1  0
 54122  1  0
 55123  1  0
 55124  1  0
 55125  1  0
 57126  1  0
 63127  1  0
 64128  1  0
 65129  1  0
 65130  1  0
 65131  1  0
M  END
> <Name>
CHEMBL539699

> <IC50 nM>
8.5

> <Molecule_ChEMBL_ID>
CHEMBL539699

> <Smiles>
C[C@@H]1C[C@H]2[C@@H]3CCC4=CC(=O)C=C[C@]4(C)[C@@]3(F)[C@@H](O)C[C@]2(C)[C@@]1(O)C(=O)CSCCNC(=S)NCCCN(C)CCCNC(=O)CCNC(=O)c1cc(NC(=O)c2nccn2C)cn1C

$$$$
CHEMBL563289
  SciTegic08162514323D

161168  0  0  1  0            999 V2000
   -1.2870    3.1250    6.0980 S   0  0
   -1.4200    1.4690    6.3500 C   0  0
   -2.5920    0.7750    6.2560 N   0  0
   -0.3650    0.6620    6.6720 N   0  0
   -3.8300    1.4920    5.9160 C   0  0
    0.9750    1.2460    6.8130 C   0  0
   -5.0210    0.5350    5.8630 C   0  0
    2.0040    0.1760    7.1740 C   0  0
   -6.5490    1.4220    5.4440 S   0  0
    3.4160    0.7420    7.3340 C   0  0
   -7.6970    0.0170    5.4730 C   0  0
    4.3750   -0.3280    7.5430 N   0  0
   -9.0860    0.4980    5.1450 C   0  0
    5.7230    0.1330    7.2620 C   0  0
    4.2830   -0.8340    8.9030 C   0  0
   -9.3130    1.6740    4.9710 O   0  0
  -10.1900   -0.5290    5.0390 C   0  0  2  0  0  0
    6.0020    0.0880    5.7600 C   0  0
  -10.0860   -1.1170    3.7500 O   0  0
  -11.6110    0.0370    5.2700 C   0  0  2  0  0  0
  -10.1290   -1.6210    6.1350 C   0  0  1  0  0  0
    7.4320    0.5020    5.4120 C   0  0
  -12.4380   -1.2520    5.3990 C   0  0  1  0  0  0
  -12.2500    0.8750    4.1470 C   0  0
  -11.5760    0.8100    6.6000 C   0  0
  -11.5720   -2.1270    6.3090 C   0  0
   -9.1410   -2.7600    5.8830 C   0  0
    7.6580    0.4450    3.9610 N   0  0
  -13.8750   -0.9690    5.8670 C   0  0  1  0  0  0
  -13.7340    1.2090    4.4470 C   0  0  1  0  0  0
    8.8830    0.7830    3.4590 C   0  0
  -14.5980   -0.0350    4.8520 C   0  0  1  0  0  0
  -14.6490   -2.2910    6.0590 C   0  0
  -13.7810    2.2190    5.4380 O   0  0
    9.7740    1.1270    4.2030 O   0  0
    9.0980    0.7190    1.9710 C   0  0
  -14.7290   -0.7520    3.6780 F   0  0
  -16.0530    0.2830    5.3460 C   0  0  2  0  0  0
  -16.0940   -2.0470    6.5120 C   0  0
   10.5280    1.0860    1.5720 C   0  0
  -16.8110   -1.0080    5.6680 C   0  0
  -16.7890    1.1720    4.3480 C   0  0
  -16.0490    1.0580    6.6740 C   0  0
   10.7010    1.0150    0.1130 N   0  0
  -18.0710   -1.2330    5.2380 C   0  0
  -18.0470    0.9260    3.9360 C   0  0
   11.9200    1.3100   -0.4320 C   0  0
  -18.7780   -0.2540    4.4060 C   0  0
   12.8460    1.6250    0.2790 O   0  0
   12.0960    1.2420   -1.8750 C   0  0
  -19.9420   -0.4140    4.1130 O   0  0
   13.2560    1.5100   -2.5470 N   0  0
   11.0960    0.8890   -2.7890 C   0  0
   13.0020    1.3300   -3.8710 C   0  0
   14.5410    1.9140   -1.9570 C   0  0
   11.6720    0.9470   -4.0550 C   0  0
   11.0080    0.6580   -5.3340 N   0  0
    9.6920    0.2910   -5.3540 C   0  0
    9.0690    0.2010   -4.3220 O   0  0
    9.0430    0.0080   -6.6270 C   0  0
    7.7400   -0.3670   -6.7870 N   0  0
    9.6680    0.0800   -7.8770 C   0  0
    7.5330   -0.5330   -8.1230 C   0  0
    6.7400   -0.5590   -5.7250 C   0  0
    8.7090   -0.2640   -8.8240 C   0  0
    8.8990   -0.3300  -10.2810 N   0  0
   10.1150   -0.0350  -10.8260 C   0  0
   11.0410    0.2790  -10.1170 O   0  0
   10.2910   -0.1040  -12.2720 C   0  0
   11.4510    0.1640  -12.9420 N   0  0
    9.2910   -0.4570  -13.1860 C   0  0
   11.1980   -0.0160  -14.2680 C   0  0
   12.7370    0.5680  -12.3540 C   0  0
    9.8670   -0.3990  -14.4490 C   0  0
    9.2030   -0.6880  -15.7310 N   0  0
    7.8870   -1.0550  -15.7500 C   0  0
    7.2640   -1.1450  -14.7190 O   0  0
    7.2400   -1.3380  -17.0220 C   0  0
    7.8560   -1.2660  -18.2370 N   0  0
    5.9360   -1.7130  -17.1780 N   0  0
    6.9300   -1.5980  -19.1600 C   0  0
    5.7380   -1.8750  -18.5040 C   0  0
    4.9360   -1.9050  -16.1150 C   0  0
   -2.6070   -0.2110    6.4160 H   0  0
   -0.5140   -0.3190    6.8070 H   0  0
   -4.0000    2.2790    6.6510 H   0  0
   -3.6990    2.0000    4.9590 H   0  0
    0.9470    2.0270    7.5740 H   0  0
    1.2480    1.7460    5.8830 H   0  0
   -4.8480   -0.2560    5.1330 H   0  0
   -5.1460    0.0250    6.8170 H   0  0
    1.9940   -0.6330    6.4420 H   0  0
    1.7010   -0.3620    8.0720 H   0  0
    3.4590    1.4390    8.1720 H   0  0
    3.7010    1.3180    6.4530 H   0  0
   -7.3810   -0.7270    4.7400 H   0  0
   -7.6880   -0.4400    6.4610 H   0  0
    6.4400   -0.4850    7.8070 H   0  0
    5.8480    1.1440    7.6470 H   0  0
    3.2990   -1.2190    9.1740 H   0  0
    4.5330   -0.0370    9.6040 H   0  0
    5.0040   -1.6390    9.0410 H   0  0
    5.2810    0.6970    5.2150 H   0  0
    5.7790   -0.9010    5.3560 H   0  0
   -9.1900   -1.4830    3.6740 H   0  0
   -9.8420   -1.1560    7.0670 H   0  0
    8.1530   -0.1430    5.9120 H   0  0
    7.6370    1.5120    5.7680 H   0  0
  -12.4900   -1.7400    4.4360 H   0  0
  -12.2090    0.3200    3.2070 H   0  0
  -11.6720    1.7870    3.9830 H   0  0
  -12.5780    1.0140    6.9790 H   0  0
  -11.0660    1.7670    6.4750 H   0  0
  -11.0410    0.2440    7.3620 H   0  0
  -11.6900   -3.1700    6.0530 H   0  0
  -11.8810   -2.0220    7.3400 H   0  0
   -9.1370   -3.4590    6.7210 H   0  0
   -9.3970   -3.2990    4.9710 H   0  0
   -8.1290   -2.3730    5.7680 H   0  0
    6.9240    0.1620    3.3440 H   0  0
  -13.8360   -0.4650    6.8360 H   0  0
  -14.1510    1.6660    3.5510 H   0  0
  -14.6510   -2.8650    5.1290 H   0  0
  -14.1490   -2.9180    6.7990 H   0  0
  -14.1150    3.0230    5.0100 H   0  0
    8.9400   -0.2990    1.6170 H   0  0
    8.3790    1.3630    1.4650 H   0  0
  -16.6390   -2.9900    6.5060 H   0  0
  -16.0900   -1.7050    7.5490 H   0  0
   11.2440    0.4180    2.0510 H   0  0
   10.7800    2.0900    1.9140 H   0  0
  -16.2890    2.0450    3.9470 H   0  0
  -17.0040    0.9800    7.1920 H   0  0
  -15.8460    2.1150    6.5020 H   0  0
  -15.2760    0.6760    7.3400 H   0  0
    9.9380    0.7560   -0.4750 H   0  0
  -18.5760   -2.1450    5.5120 H   0  0
  -18.5160    1.6090    3.2460 H   0  0
   10.0740    0.6250   -2.5550 H   0  0
   13.7480    1.4760   -4.6410 H   0  0
   14.5300    2.0000   -0.8710 H   0  0
   14.8400    2.8810   -2.3630 H   0  0
   15.3090    1.1890   -2.2270 H   0  0
   11.5240    0.7320   -6.1880 H   0  0
   10.6990    0.3490   -8.0680 H   0  0
    6.5800   -0.8320   -8.5390 H   0  0
    7.1150   -0.3730   -4.7190 H   0  0
    6.3670   -1.5820   -5.7580 H   0  0
    5.8970    0.1090   -5.8950 H   0  0
    8.1330   -0.5900  -10.8710 H   0  0
    8.2700   -0.7210  -12.9510 H   0  0
   11.9440    0.1310  -15.0370 H   0  0
   12.7250    0.6540  -11.2660 H   0  0
   13.0350    1.5350  -12.7600 H   0  0
   13.5040   -0.1560  -12.6210 H   0  0
    9.7190   -0.6130  -16.5840 H   0  0
    7.1250   -1.6290  -20.2250 H   0  0
    4.7950   -2.1740  -18.9440 H   0  0
    5.3090   -1.7190  -15.1080 H   0  0
    4.5610   -2.9280  -16.1490 H   0  0
    4.0920   -1.2370  -16.2850 H   0  0
  1  2  2  0
  2  3  1  0
  2  4  1  0
  3  5  1  0
  4  6  1  0
  5  7  1  0
  6  8  1  0
  7  9  1  0
  8 10  1  0
  9 11  1  0
 10 12  1  0
 11 13  1  0
 12 14  1  0
 12 15  1  0
 13 16  2  0
 13 17  1  0
 14 18  1  0
 17 19  1  0
 17 20  1  0
 17 21  1  0
 18 22  1  0
 20 23  1  0
 20 24  1  0
 20 25  1  0
 21 26  1  0
 21 27  1  0
 22 28  1  0
 23 29  1  0
 24 30  1  0
 28 31  1  0
 29 32  1  0
 29 33  1  0
 30 34  1  0
 31 35  2  0
 31 36  1  0
 32 37  1  0
 32 38  1  0
 33 39  1  0
 36 40  1  0
 38 41  1  0
 38 42  1  0
 38 43  1  0
 40 44  1  0
 41 45  2  0
 42 46  2  0
 44 47  1  0
 45 48  1  0
 47 49  2  0
 47 50  1  0
 48 51  2  0
 50 52  1  0
 50 53  2  0
 52 54  1  0
 52 55  1  0
 53 56  1  0
 56 57  1  0
 57 58  1  0
 58 59  2  0
 58 60  1  0
 60 61  1  0
 60 62  2  0
 61 63  1  0
 61 64  1  0
 62 65  1  0
 65 66  1  0
 66 67  1  0
 67 68  2  0
 67 69  1  0
 69 70  1  0
 69 71  2  0
 70 72  1  0
 70 73  1  0
 71 74  1  0
 74 75  1  0
 75 76  1  0
 76 77  2  0
 76 78  1  0
 78 79  2  0
 78 80  1  0
 79 81  1  0
 80 82  1  0
 80 83  1  0
 23 26  1  0
 30 32  1  0
 39 41  1  0
 46 48  1  0
 54 56  2  0
 63 65  2  0
 72 74  2  0
 81 82  2  0
  3 84  1  0
  4 85  1  0
  5 86  1  0
  5 87  1  0
  6 88  1  0
  6 89  1  0
  7 90  1  0
  7 91  1  0
  8 92  1  0
  8 93  1  0
 10 94  1  0
 10 95  1  0
 11 96  1  0
 11 97  1  0
 14 98  1  0
 14 99  1  0
 15100  1  0
 15101  1  0
 15102  1  0
 18103  1  0
 18104  1  0
 19105  1  0
 21106  1  0
 22107  1  0
 22108  1  0
 23109  1  0
 24110  1  0
 24111  1  0
 25112  1  0
 25113  1  0
 25114  1  0
 26115  1  0
 26116  1  0
 27117  1  0
 27118  1  0
 27119  1  0
 28120  1  0
 29121  1  0
 30122  1  0
 33123  1  0
 33124  1  0
 34125  1  0
 36126  1  0
 36127  1  0
 39128  1  0
 39129  1  0
 40130  1  0
 40131  1  0
 42132  1  0
 43133  1  0
 43134  1  0
 43135  1  0
 44136  1  0
 45137  1  0
 46138  1  0
 53139  1  0
 54140  1  0
 55141  1  0
 55142  1  0
 55143  1  0
 57144  1  0
 62145  1  0
 63146  1  0
 64147  1  0
 64148  1  0
 64149  1  0
 66150  1  0
 71151  1  0
 72152  1  0
 73153  1  0
 73154  1  0
 73155  1  0
 75156  1  0
 81157  1  0
 82158  1  0
 83159  1  0
 83160  1  0
 83161  1  0
M  END
> <Name>
CHEMBL563289

> <IC50 nM>
20

> <Molecule_ChEMBL_ID>
CHEMBL563289

> <Smiles>
C[C@@H]1C[C@H]2[C@@H]3CCC4=CC(=O)C=C[C@]4(C)[C@@]3(F)[C@@H](O)C[C@]2(C)[C@@]1(O)C(=O)CSCCNC(=S)NCCCN(C)CCCNC(=O)CCNC(=O)c1cc(NC(=O)c2cc(NC(=O)c3cc(NC(=O)c4nccn4C)cn3C)cn2C)cn1C

$$$$
CHEMBL1684347
  SciTegic08162514323D

 59 63  0  0  1  0            999 V2000
    7.9300    1.4400   -1.6170 Cl  0  0
    6.4450    0.7400   -1.1150 C   0  0
    5.7620    0.9510    0.0370 C   0  0
    5.6880   -0.1910   -1.8480 C   0  0
    4.6050    0.2110    0.0940 C   0  0
    6.1310    1.8170    1.1000 C   0  0
    4.5390   -0.5170   -1.0880 N   0  0
    3.7400    0.2850    1.2170 C   0  0
    5.2830    1.9040    2.2320 C   0  0
    2.5140   -0.5000    1.2770 C   0  0
    4.0880    1.1410    2.2950 C   0  0
    1.2560    0.1540    1.3200 C   0  0
    2.5840   -1.9140    1.2930 C   0  0
    1.1910    1.4880    1.3070 F   0  0
    0.0570   -0.6070    1.3770 C   0  0
    3.7540   -2.5510    1.2580 F   0  0
    1.3930   -2.6740    1.3500 C   0  0
    0.1250   -2.0350    1.3910 C   0  0
   -1.2600    0.0920    1.4220 C   0  0  1  0  0  0
   -0.9980   -2.8010    1.4410 N   0  0
   -2.3970   -0.8080    0.8950 C   0  0  2  0  0  0
   -1.5450    0.5980    2.8420 C   0  0
   -2.3670   -2.2210    1.5250 C   0  0
   -2.2680   -0.9180   -0.5200 O   0  0
   -3.3500   -3.1420    0.7910 C   0  0
   -2.7770   -2.1620    3.0000 C   0  0
   -2.6760    0.1800   -1.1500 C   0  0
   -3.1600    1.1370   -0.5940 O   0  0
   -2.5140    0.1800   -2.5080 N   0  0
   -2.9040    1.2680   -3.2440 C   0  0
   -3.5470    1.0880   -4.4840 C   0  0
   -2.6640    2.5700   -2.7620 C   0  0
   -3.9470    2.2050   -5.2380 C   0  0
   -3.0670    3.6840   -3.5180 C   0  0
   -3.7070    3.5020   -4.7560 C   0  0
    5.9040   -0.6110   -2.8200 H   0  0
    7.0370    2.4040    1.0610 H   0  0
    3.8220   -1.1500   -1.3560 H   0  0
    5.5490    2.5570    3.0530 H   0  0
    3.4550    1.2210    3.1680 H   0  0
    1.4650   -3.7520    1.3610 H   0  0
   -1.2210    0.9670    0.7710 H   0  0
   -0.9220   -3.8010    1.4300 H   0  0
   -3.3590   -0.3340    1.0820 H   0  0
   -1.1520    1.6080    2.9770 H   0  0
   -2.6150    0.6020    3.0410 H   0  0
   -1.0680   -0.0450    3.5820 H   0  0
   -3.0840   -3.2640   -0.2600 H   0  0
   -4.3610   -2.7400    0.8340 H   0  0
   -3.3630   -4.1310    1.2480 H   0  0
   -1.9550   -1.8320    3.6370 H   0  0
   -3.0980   -3.1420    3.3500 H   0  0
   -3.6080   -1.4710    3.1430 H   0  0
   -2.1110   -0.6130   -2.9630 H   0  0
   -3.7400    0.0980   -4.8710 H   0  0
   -2.1740    2.7290   -1.8130 H   0  0
   -4.4400    2.0650   -6.1900 H   0  0
   -2.8810    4.6820   -3.1490 H   0  0
   -4.0140    4.3600   -5.3360 H   0  0
  1  2  1  0
  2  3  1  0
  2  4  2  0
  3  5  1  0
  3  6  2  0
  4  7  1  0
  5  8  2  0
  6  9  1  0
  8 10  1  0
  8 11  1  0
 10 12  2  0
 10 13  1  0
 12 14  1  0
 12 15  1  0
 13 16  1  0
 13 17  2  0
 15 18  2  0
 15 19  1  0
 18 20  1  0
 19 21  1  0
 19 22  1  0
 20 23  1  0
 21 24  1  0
 23 25  1  0
 23 26  1  0
 24 27  1  0
 27 28  2  0
 27 29  1  0
 29 30  1  0
 30 31  2  0
 30 32  1  0
 31 33  1  0
 32 34  2  0
 33 35  2  0
  5  7  1  0
  9 11  2  0
 17 18  1  0
 21 23  1  0
 34 35  1  0
  4 36  1  0
  6 37  1  0
  7 38  1  0
  9 39  1  0
 11 40  1  0
 17 41  1  0
 19 42  1  0
 20 43  1  0
 21 44  1  0
 22 45  1  0
 22 46  1  0
 22 47  1  0
 25 48  1  0
 25 49  1  0
 25 50  1  0
 26 51  1  0
 26 52  1  0
 26 53  1  0
 29 54  1  0
 31 55  1  0
 32 56  1  0
 33 57  1  0
 34 58  1  0
 35 59  1  0
M  END
> <Name>
CHEMBL1684347

> <IC50 nM>
33

> <Molecule_ChEMBL_ID>
CHEMBL1684347

> <Smiles>
C[C@H]1c2c(cc(F)c(-c3cccc4c(Cl)c[nH]c34)c2F)NC(C)(C)[C@@H]1OC(=O)Nc1ccccc1

$$$$
CHEMBL1084072
  SciTegic08162514323D

 42 45  0  0  0  0            999 V2000
    5.6090    6.1170   -0.9920 F   0  0
    5.1210    4.8830   -0.8980 C   0  0
    4.0760    4.6050    0.0000 C   0  0
    5.6520    3.8540   -1.6950 C   0  0
    3.5590    3.3030    0.1020 C   0  0
    5.1370    2.5490   -1.5960 C   0  0
    4.0900    2.2700   -0.6950 C   0  0
    3.5920    1.0100   -0.5980 N   0  0
    4.3420   -0.1470   -0.5740 N   0  0
    2.2850    0.6560   -0.5080 C   0  0
    3.6090   -1.3110   -0.4710 C   0  0
    2.3570   -0.7230   -0.4350 C   0  0
    1.0630    1.3650   -0.4820 C   0  0
    1.1600   -1.4770   -0.3260 C   0  0
   -0.1350    0.6150   -0.3750 C   0  0
   -0.0940   -0.8050   -0.2970 C   0  0
   -1.3300   -1.5660   -0.1850 C   0  0
   -2.3670   -1.1090    0.6470 C   0  0
   -1.4860   -2.7640   -0.9100 C   0  0
   -3.5630   -1.8440    0.7560 C   0  0
   -2.6820   -3.4960   -0.8030 C   0  0
   -4.5350   -1.4160    1.5350 O   0  0
   -3.7150   -3.0370    0.0290 C   0  0
   -5.7210   -2.1930    1.6110 C   0  0
   -6.7110   -1.5220    2.5630 C   0  0
    3.6640    5.3950    0.6150 H   0  0
    6.4550    4.0610   -2.3870 H   0  0
    2.7560    3.1110    0.7990 H   0  0
    5.5590    1.7700   -2.2170 H   0  0
    3.9610   -2.3340   -0.4320 H   0  0
    1.0390    2.4430   -0.5410 H   0  0
    1.2030   -2.5570   -0.2670 H   0  0
   -1.0800    1.1410   -0.3530 H   0  0
   -2.2600   -0.1910    1.2090 H   0  0
   -0.6990   -3.1290   -1.5550 H   0  0
   -2.8030   -4.4140   -1.3590 H   0  0
   -4.6310   -3.6060    0.1090 H   0  0
   -6.1430   -2.2720    0.6080 H   0  0
   -5.4550   -3.1880    1.9690 H   0  0
   -7.6310   -2.1020    2.6330 H   0  0
   -6.2790   -1.4200    3.5590 H   0  0
   -6.9710   -0.5250    2.2070 H   0  0
  1  2  1  0
  2  3  2  0
  2  4  1  0
  3  5  1  0
  4  6  2  0
  5  7  2  0
  7  8  1  0
  8  9  1  0
  8 10  1  0
  9 11  2  0
 10 12  1  0
 10 13  2  0
 12 14  2  0
 13 15  1  0
 14 16  1  0
 16 17  1  0
 17 18  2  0
 17 19  1  0
 18 20  1  0
 19 21  2  0
 20 22  1  0
 20 23  2  0
 22 24  1  0
 24 25  1  0
  6  7  1  0
 11 12  1  0
 15 16  2  0
 21 23  1  0
  3 26  1  0
  4 27  1  0
  5 28  1  0
  6 29  1  0
 11 30  1  0
 13 31  1  0
 14 32  1  0
 15 33  1  0
 18 34  1  0
 19 35  1  0
 21 36  1  0
 23 37  1  0
 24 38  1  0
 24 39  1  0
 25 40  1  0
 25 41  1  0
 25 42  1  0
M  END
> <Name>
CHEMBL1084072

> <IC50 nM>
10000

> <Molecule_ChEMBL_ID>
CHEMBL1084072

> <Smiles>
CCOc1cccc(-c2ccc3c(cnn3-c3ccc(F)cc3)c2)c1

$$$$
CHEMBL1086312
  SciTegic08162514323D

 36 39  0  0  0  0            999 V2000
    4.5140    5.7770   -0.6370 F   0  0
    4.0260    4.5430   -0.5410 C   0  0
    2.9790    4.2680    0.3550 C   0  0
    4.5590    3.5140   -1.3380 C   0  0
    2.4630    2.9650    0.4570 C   0  0
    4.0430    2.2090   -1.2380 C   0  0
    2.9940    1.9320   -0.3400 C   0  0
    2.4960    0.6700   -0.2420 N   0  0
    3.2460   -0.4840   -0.2190 N   0  0
    1.1900    0.3160   -0.1520 C   0  0
    2.5160   -1.6510   -0.1130 C   0  0
    1.2620   -1.0610   -0.0780 C   0  0
   -0.0310    1.0250   -0.1250 C   0  0
    0.0650   -1.8170    0.0290 C   0  0
   -1.2300    0.2770   -0.0200 C   0  0
   -1.1890   -1.1450    0.0580 C   0  0
   -2.4240   -1.9060    0.1700 C   0  0
   -3.4550   -1.4490    1.0160 C   0  0
   -2.5880   -3.0940   -0.5670 C   0  0
   -4.6440   -2.1950    1.1150 C   0  0
   -3.7770   -3.8340   -0.4630 C   0  0
   -5.6990   -1.7330    1.9760 C   0  0
   -4.8100   -3.3830    0.3790 C   0  0
   -6.5510   -1.3600    2.6720 N   0  0
    2.5670    5.0570    0.9690 H   0  0
    5.3640    3.7210   -2.0270 H   0  0
    1.6580    2.7710    1.1500 H   0  0
    4.4670    1.4300   -1.8580 H   0  0
    2.8650   -2.6740   -0.0760 H   0  0
   -0.0560    2.1030   -0.1860 H   0  0
    0.1080   -2.8970    0.0880 H   0  0
   -2.1740    0.8010    0.0020 H   0  0
   -3.3300   -0.5370    1.5820 H   0  0
   -1.8010   -3.4510   -1.2190 H   0  0
   -3.9000   -4.7460   -1.0290 H   0  0
   -5.7210   -3.9610    0.4510 H   0  0
  1  2  1  0
  2  3  2  0
  2  4  1  0
  3  5  1  0
  4  6  2  0
  5  7  2  0
  7  8  1  0
  8  9  1  0
  8 10  1  0
  9 11  2  0
 10 12  1  0
 10 13  2  0
 12 14  2  0
 13 15  1  0
 14 16  1  0
 16 17  1  0
 17 18  2  0
 17 19  1  0
 18 20  1  0
 19 21  2  0
 20 22  1  0
 20 23  2  0
 22 24  3  0
  6  7  1  0
 11 12  1  0
 15 16  2  0
 21 23  1  0
  3 25  1  0
  4 26  1  0
  5 27  1  0
  6 28  1  0
 11 29  1  0
 13 30  1  0
 14 31  1  0
 15 32  1  0
 18 33  1  0
 19 34  1  0
 21 35  1  0
 23 36  1  0
M  END
> <Name>
CHEMBL1086312

> <IC50 nM>
10000

> <Molecule_ChEMBL_ID>
CHEMBL1086312

> <Smiles>
N#Cc1cccc(-c2ccc3c(cnn3-c3ccc(F)cc3)c2)c1

$$$$
CHEMBL1083253
  SciTegic08162514323D

 35 38  0  0  0  0            999 V2000
    4.3200    5.7420   -0.5560 F   0  0
    3.8340    4.5080   -0.4610 C   0  0
    4.3650    3.4770   -1.2560 C   0  0
    2.7850    4.2320    0.4360 C   0  0
    3.8520    2.1740   -1.1560 C   0  0
    2.2700    2.9280    0.5370 C   0  0
    2.8010    1.8950   -0.2600 C   0  0
    2.3030    0.6350   -0.1620 N   0  0
    3.0530   -0.5220   -0.1380 N   0  0
    0.9960    0.2790   -0.0700 C   0  0
    2.3220   -1.6860   -0.0330 C   0  0
    1.0700   -1.0980    0.0020 C   0  0
   -0.2250    0.9900   -0.0450 C   0  0
   -0.1270   -1.8520    0.1100 C   0  0
   -1.4240    0.2400    0.0630 C   0  0
   -1.3830   -1.1800    0.1410 C   0  0
   -2.6170   -1.9430    0.2520 C   0  0
   -2.7750   -3.1390   -0.4740 C   0  0
   -3.6560   -1.4840    1.0840 C   0  0
   -3.9690   -3.8730   -0.3650 C   0  0
   -4.8500   -2.2210    1.1900 C   0  0
   -5.0060   -3.4160    0.4650 C   0  0
    5.1700    3.6860   -1.9470 H   0  0
    2.3750    5.0200    1.0490 H   0  0
    4.2740    1.3940   -1.7770 H   0  0
    1.4650    2.7360    1.2330 H   0  0
    2.6740   -2.7090    0.0060 H   0  0
   -0.2480    2.0680   -0.1030 H   0  0
   -0.0860   -2.9320    0.1680 H   0  0
   -2.3670    0.7660    0.0840 H   0  0
   -1.9880   -3.5060   -1.1170 H   0  0
   -3.5530   -0.5680    1.6470 H   0  0
   -4.0900   -4.7910   -0.9220 H   0  0
   -5.6450   -1.8690    1.8280 H   0  0
   -5.9220   -3.9810    0.5470 H   0  0
  1  2  1  0
  2  3  2  0
  2  4  1  0
  3  5  1  0
  4  6  2  0
  5  7  2  0
  7  8  1  0
  8  9  1  0
  8 10  1  0
  9 11  2  0
 10 12  1  0
 10 13  2  0
 12 14  2  0
 13 15  1  0
 14 16  1  0
 16 17  1  0
 17 18  2  0
 17 19  1  0
 18 20  1  0
 19 21  2  0
 20 22  2  0
  6  7  1  0
 11 12  1  0
 15 16  2  0
 21 22  1  0
  3 23  1  0
  4 24  1  0
  5 25  1  0
  6 26  1  0
 11 27  1  0
 13 28  1  0
 14 29  1  0
 15 30  1  0
 18 31  1  0
 19 32  1  0
 20 33  1  0
 21 34  1  0
 22 35  1  0
M  END
> <Name>
CHEMBL1083253

> <IC50 nM>
10000

> <Molecule_ChEMBL_ID>
CHEMBL1083253

> <Smiles>
Fc1ccc(-n2ncc3cc(-c4ccccc4)ccc32)cc1

$$$$
CHEMBL1086115
  SciTegic08162514323D

 59 63  0  0  0  0            999 V2000
   -4.0530   -1.8960    0.7140 S   0  0
   -5.1660   -0.9620    0.7090 O   0  0
   -3.9990   -2.7160    1.9110 O   0  0
   -4.2470   -2.8900   -0.5500 N   0  0
   -2.5860   -0.9930    0.6080 C   0  0
   -3.5180   -4.0470   -0.6300 C   0  0
   -5.2060   -2.5510   -1.6120 C   0  0
   -1.8790   -0.6700    1.7770 C   0  0
   -2.1030   -0.5840   -0.6460 C   0  0
   -2.3550   -4.2040    0.1490 C   0  0
   -3.9290   -5.0840   -1.4900 C   0  0
   -6.6020   -3.0770   -1.2780 C   0  0
   -0.6820    0.0660    1.6980 C   0  0
   -0.9090    0.1510   -0.7310 C   0  0
   -1.6080   -5.3920    0.0660 C   0  0
   -3.1800   -6.2700   -1.5710 C   0  0
   -0.1940    0.4780    0.4380 C   0  0
    0.0470    0.3940    2.9560 C   0  0
   -2.0200   -6.4240   -0.7930 C   0  0
    1.0430    1.2420    0.3270 C   0  0
    1.2580   -0.2470    2.9620 F   0  0
   -0.6940   -0.0170    4.0340 F   0  0
    0.2460    1.7490    3.0280 F   0  0
    2.2980    0.5700    0.2970 C   0  0
    1.0020    2.6630    0.2490 C   0  0
    3.4950    1.3250    0.1890 C   0  0
    2.2000    3.4120    0.1420 C   0  0
    3.4220    2.7020    0.1160 C   0  0
    4.7470    0.7360    0.1540 C   0  0
    4.7290    3.0560    0.0250 N   0  0
    5.4790    1.9010    0.0490 N   0  0
    5.2270    4.3170   -0.0720 C   0  0
    6.2760    4.5950   -0.9700 C   0  0
    4.6960    5.3500    0.7240 C   0  0
    6.7900    5.9000   -1.0700 C   0  0
    5.2120    6.6530    0.6230 C   0  0
    6.2580    6.9290   -0.2740 C   0  0
    6.7460    8.1640   -0.3690 F   0  0
   -5.2230   -1.4700   -1.7470 H   0  0
   -4.8550   -2.9650   -2.5570 H   0  0
   -2.2580   -0.9890    2.7370 H   0  0
   -2.6490   -0.8340   -1.5450 H   0  0
   -2.0220   -3.4200    0.8150 H   0  0
   -4.8190   -4.9830   -2.0960 H   0  0
   -7.2960   -2.8720   -2.0930 H   0  0
   -6.5760   -4.1510   -1.0950 H   0  0
   -6.9900   -2.5960   -0.3800 H   0  0
   -0.5500    0.4580   -1.7030 H   0  0
   -0.7160   -5.5100    0.6630 H   0  0
   -3.4960   -7.0640   -2.2310 H   0  0
   -1.4450   -7.3370   -0.8560 H   0  0
    2.3400   -0.5100    0.3550 H   0  0
    0.0580    3.1880    0.2700 H   0  0
    2.1770    4.4900    0.0820 H   0  0
    5.0990   -0.2870    0.1920 H   0  0
    6.6980    3.8170   -1.5910 H   0  0
    3.8910    5.1580    1.4200 H   0  0
    7.5940    6.1070   -1.7610 H   0  0
    4.8010    7.4420    1.2370 H   0  0
  1  2  2  0
  1  3  2  0
  1  4  1  0
  1  5  1  0
  4  6  1  0
  4  7  1  0
  5  8  2  0
  5  9  1  0
  6 10  2  0
  6 11  1  0
  7 12  1  0
  8 13  1  0
  9 14  2  0
 10 15  1  0
 11 16  2  0
 13 17  2  0
 13 18  1  0
 15 19  2  0
 17 20  1  0
 18 21  1  0
 18 22  1  0
 18 23  1  0
 20 24  2  0
 20 25  1  0
 24 26  1  0
 25 27  2  0
 26 28  2  0
 26 29  1  0
 28 30  1  0
 29 31  2  0
 30 32  1  0
 32 33  2  0
 32 34  1  0
 33 35  1  0
 34 36  2  0
 35 37  2  0
 37 38  1  0
 14 17  1  0
 16 19  1  0
 27 28  1  0
 30 31  1  0
 36 37  1  0
  7 39  1  0
  7 40  1  0
  8 41  1  0
  9 42  1  0
 10 43  1  0
 11 44  1  0
 12 45  1  0
 12 46  1  0
 12 47  1  0
 14 48  1  0
 15 49  1  0
 16 50  1  0
 19 51  1  0
 24 52  1  0
 25 53  1  0
 27 54  1  0
 29 55  1  0
 33 56  1  0
 34 57  1  0
 35 58  1  0
 36 59  1  0
M  END
> <Name>
CHEMBL1086115

> <IC50 nM>
15.85

> <Molecule_ChEMBL_ID>
CHEMBL1086115

> <Smiles>
CCN(c1ccccc1)S(=O)(=O)c1ccc(-c2ccc3c(cnn3-c3ccc(F)cc3)c2)c(C(F)(F)F)c1

$$$$
CHEMBL1086116
  SciTegic08162514323D

 62 66  0  0  0  0            999 V2000
   -2.9800   -2.7130   -0.1350 S   0  0
   -2.6330   -4.1040    0.1000 O   0  0
   -3.7720   -2.5160   -1.3360 O   0  0
   -3.8730   -2.2150    1.1230 N   0  0
   -1.5210   -1.8070   -0.2910 C   0  0
   -4.7030   -3.0960    1.7660 C   0  0
   -3.7910   -0.8200    1.5760 C   0  0
   -1.1410   -1.3050   -1.5470 C   0  0
   -0.7170   -1.5720    0.8360 C   0  0
   -4.9960   -2.9220    3.1310 C   0  0
   -5.2660   -4.1780    1.0600 C   0  0
   -5.1720   -0.1620    1.5760 C   0  0
    0.0490   -0.5650   -1.6800 C   0  0
    0.4730   -0.8340    0.7090 C   0  0
   -5.8500   -3.8260    3.7890 C   0  0
   -6.1170   -5.0800    1.7210 C   0  0
   -5.7810   -0.0700    0.1760 C   0  0
    0.8590   -0.3280   -0.5490 C   0  0
    0.4260   -0.0470   -3.0260 C   0  0
   -6.4080   -4.9060    3.0840 C   0  0
    2.0960    0.4340   -0.6580 C   0  0
    1.7320   -0.3690   -3.2890 F   0  0
    0.2790    1.3160   -3.0470 F   0  0
   -0.3850   -0.6070   -3.9770 F   0  0
    3.3500   -0.2380   -0.6900 C   0  0
    2.0550    1.8550   -0.7360 C   0  0
    4.5470    0.5180   -0.7970 C   0  0
    3.2520    2.6030   -0.8440 C   0  0
    4.4730    1.8940   -0.8710 C   0  0
    5.7990   -0.0720   -0.8320 C   0  0
    5.7810    2.2480   -0.9610 N   0  0
    6.5290    1.0940   -0.9380 N   0  0
    6.2790    3.5100   -1.0590 C   0  0
    7.3280    3.7870   -1.9550 C   0  0
    5.7460    4.5430   -0.2620 C   0  0
    7.8420    5.0920   -2.0550 C   0  0
    6.2620    5.8460   -0.3630 C   0  0
    7.3110    6.1210   -1.2600 C   0  0
    7.7970    7.3560   -1.3560 F   0  0
   -3.3520   -0.7910    2.5740 H   0  0
   -3.1040   -0.2740    0.9320 H   0  0
   -1.7660   -1.4900   -2.4080 H   0  0
   -1.0100   -1.9590    1.8030 H   0  0
   -4.5760   -2.0980    3.6910 H   0  0
   -5.0530   -4.3280    0.0120 H   0  0
   -5.8460   -0.6800    2.2560 H   0  0
   -5.1290    0.8220    2.0410 H   0  0
    1.0800   -0.6620    1.5860 H   0  0
   -6.0740   -3.6930    4.8360 H   0  0
   -6.5470   -5.9100    1.1780 H   0  0
   -5.9430   -1.0660   -0.2380 H   0  0
   -6.7310    0.4630    0.2030 H   0  0
   -5.1150    0.4670   -0.5000 H   0  0
   -7.0650   -5.6000    3.5900 H   0  0
    3.3910   -1.3180   -0.6310 H   0  0
    1.1090    2.3790   -0.7170 H   0  0
    3.2290    3.6820   -0.9040 H   0  0
    6.1510   -1.0960   -0.7950 H   0  0
    7.7500    3.0080   -2.5760 H   0  0
    4.9420    4.3500    0.4340 H   0  0
    8.6470    5.2990   -2.7460 H   0  0
    5.8520    6.6350    0.2500 H   0  0
  1  2  2  0
  1  3  2  0
  1  4  1  0
  1  5  1  0
  4  6  1  0
  4  7  1  0
  5  8  2  0
  5  9  1  0
  6 10  2  0
  6 11  1  0
  7 12  1  0
  8 13  1  0
  9 14  2  0
 10 15  1  0
 11 16  2  0
 12 17  1  0
 13 18  2  0
 13 19  1  0
 15 20  2  0
 18 21  1  0
 19 22  1  0
 19 23  1  0
 19 24  1  0
 21 25  2  0
 21 26  1  0
 25 27  1  0
 26 28  2  0
 27 29  2  0
 27 30  1  0
 29 31  1  0
 30 32  2  0
 31 33  1  0
 33 34  2  0
 33 35  1  0
 34 36  1  0
 35 37  2  0
 36 38  2  0
 38 39  1  0
 14 18  1  0
 16 20  1  0
 28 29  1  0
 31 32  1  0
 37 38  1  0
  7 40  1  0
  7 41  1  0
  8 42  1  0
  9 43  1  0
 10 44  1  0
 11 45  1  0
 12 46  1  0
 12 47  1  0
 14 48  1  0
 15 49  1  0
 16 50  1  0
 17 51  1  0
 17 52  1  0
 17 53  1  0
 20 54  1  0
 25 55  1  0
 26 56  1  0
 28 57  1  0
 30 58  1  0
 34 59  1  0
 35 60  1  0
 36 61  1  0
 37 62  1  0
M  END
> <Name>
CHEMBL1086116

> <IC50 nM>
15.85

> <Molecule_ChEMBL_ID>
CHEMBL1086116

> <Smiles>
CCCN(c1ccccc1)S(=O)(=O)c1ccc(-c2ccc3c(cnn3-c3ccc(F)cc3)c2)c(C(F)(F)F)c1

$$$$
CHEMBL1083709
  SciTegic08162514323D

 52 55  0  0  0  0            999 V2000
   -4.4470   -3.2420   -0.8440 S   0  0
   -4.7620   -2.1270   -1.7190 O   0  0
   -3.4960   -4.1740   -1.4240 O   0  0
   -3.7750   -2.6350    0.5000 N   0  0
   -5.9570   -4.1230   -0.4630 C   0  0
   -2.6130   -1.9140    0.4180 C   0  0
   -6.5000   -4.8210   -1.7110 C   0  0
   -6.9790   -3.1820    0.1780 C   0  0
   -2.0350   -1.3730    1.5820 C   0  0
   -1.9960   -1.7130   -0.8280 C   0  0
   -0.8420   -0.6330    1.5020 C   0  0
   -0.8030   -0.9750   -0.9120 C   0  0
   -0.2230   -0.4320    0.2500 C   0  0
   -0.2560   -0.0740    2.7540 C   0  0
    1.0160    0.3300    0.1390 C   0  0
    1.0390   -0.5060    2.8830 F   0  0
   -0.9880   -0.5000    3.8320 F   0  0
   -0.2790    1.2950    2.6970 F   0  0
    2.2700   -0.3400    0.1070 C   0  0
    0.9750    1.7520    0.0610 C   0  0
    3.4670    0.4140    0.0000 C   0  0
    2.1720    2.5020   -0.0470 C   0  0
    3.3950    1.7910   -0.0720 C   0  0
    4.7190   -0.1760   -0.0350 C   0  0
    4.7010    2.1460   -0.1640 N   0  0
    5.4510    0.9900   -0.1410 N   0  0
    5.1990    3.4060   -0.2620 C   0  0
    6.2500    3.6830   -1.1560 C   0  0
    4.6640    4.4390    0.5330 C   0  0
    6.7640    4.9880   -1.2560 C   0  0
    5.1800    5.7440    0.4320 C   0  0
    6.2310    6.0180   -0.4630 C   0  0
    6.7190    7.2520   -0.5570 F   0  0
   -4.2110   -2.7850    1.3870 H   0  0
   -5.5980   -4.8540    0.2620 H   0  0
   -7.3870   -5.4140   -1.4900 H   0  0
   -5.7480   -5.4870   -2.1370 H   0  0
   -6.7680   -4.0900   -2.4750 H   0  0
   -7.8870   -3.7230    0.4410 H   0  0
   -6.5670   -2.7210    1.0760 H   0  0
   -7.2520   -2.3830   -0.5120 H   0  0
   -2.5020   -1.5220    2.5470 H   0  0
   -2.4260   -2.1210   -1.7340 H   0  0
   -0.3420   -0.8300   -1.8810 H   0  0
    2.3110   -1.4200    0.1660 H   0  0
    0.0290    2.2770    0.0820 H   0  0
    2.1480    3.5800   -0.1050 H   0  0
    5.0700   -1.1970    0.0040 H   0  0
    6.6740    2.9040   -1.7730 H   0  0
    3.8570    4.2480    1.2270 H   0  0
    7.5700    5.1950   -1.9430 H   0  0
    4.7680    6.5330    1.0430 H   0  0
  1  2  2  0
  1  3  2  0
  1  4  1  0
  1  5  1  0
  4  6  1  0
  5  7  1  0
  5  8  1  0
  6  9  2  0
  6 10  1  0
  9 11  1  0
 10 12  2  0
 11 13  2  0
 11 14  1  0
 13 15  1  0
 14 16  1  0
 14 17  1  0
 14 18  1  0
 15 19  2  0
 15 20  1  0
 19 21  1  0
 20 22  2  0
 21 23  2  0
 21 24  1  0
 23 25  1  0
 24 26  2  0
 25 27  1  0
 27 28  2  0
 27 29  1  0
 28 30  1  0
 29 31  2  0
 30 32  2  0
 32 33  1  0
 12 13  1  0
 22 23  1  0
 25 26  1  0
 31 32  1  0
  4 34  1  0
  5 35  1  0
  7 36  1  0
  7 37  1  0
  7 38  1  0
  8 39  1  0
  8 40  1  0
  8 41  1  0
  9 42  1  0
 10 43  1  0
 12 44  1  0
 19 45  1  0
 20 46  1  0
 22 47  1  0
 24 48  1  0
 28 49  1  0
 29 50  1  0
 30 51  1  0
 31 52  1  0
M  END
> <Name>
CHEMBL1083709

> <IC50 nM>
50.12

> <Molecule_ChEMBL_ID>
CHEMBL1083709

> <Smiles>
CC(C)S(=O)(=O)Nc1ccc(-c2ccc3c(cnn3-c3ccc(F)cc3)c2)c(C(F)(F)F)c1

$$$$
CHEMBL1940547
  SciTegic08162514323D

 69 74  0  0  1  0            999 V2000
    4.4420   -0.1500   -1.8110 S   0  0
    3.8870   -0.1930   -3.4080 C   0  0
    2.9550   -0.2010   -0.8890 C   0  0
    2.6500   -0.2500   -4.0310 N   0  0
    5.0550   -0.1560   -4.2210 C   0  0
    3.2790   -0.2340    0.5820 C   0  0
    2.5160   -0.2730   -5.4040 C   0  0
    4.9570   -0.1780   -5.6350 C   0  0
    4.3580    0.1290    0.9900 O   0  0
    2.2170   -0.7380    1.5310 C   0  0  2  0  0  0
    3.6760   -0.2380   -6.2380 C   0  0
    1.2340   -0.3320   -6.0080 C   0  0
    2.0800   -2.1290    1.2950 O   0  0
    0.8500   -0.0210    1.4080 C   0  0  2  0  0  0
    2.5680   -0.5230    3.0180 C   0  0
    3.5470   -0.2620   -7.6510 C   0  0
    1.1070   -0.3550   -7.4160 C   0  0
    0.1600   -0.4670    2.7050 C   0  0  1  0  0  0
   -0.0620   -0.4160    0.2320 C   0  0
    1.1190    1.4920    1.4280 C   0  0
    1.2520   -0.2480    3.7520 C   0  0
    2.2600   -0.3200   -8.2350 C   0  0
   -1.1840    0.2460    2.9340 C   0  0  1  0  0  0
   -1.4860    0.1740    0.3630 C   0  0  1  0  0  0
   -2.1370   -0.0980    1.7540 C   0  0  2  0  0  0
   -1.7660   -0.2190    4.2810 C   0  0
   -1.4430    1.5610    0.0780 O   0  0
   -3.5630    0.5060    1.9690 C   0  0  2  0  0  0
   -3.1720    0.3380    4.5230 C   0  0
   -4.0720    0.0590    3.3400 C   0  0
   -4.5000    0.1130    0.8320 C   0  0
   -3.5330    2.0410    2.0000 C   0  0
   -5.2580   -0.5620    3.5120 C   0  0
   -5.6740   -0.5160    1.0270 C   0  0
   -6.1310   -0.8710    2.3730 C   0  0
   -7.2010   -1.4080    2.5430 O   0  0
    2.3570    0.6800   -1.1150 H   0  0
    2.3870   -1.0900   -1.1640 H   0  0
    6.0390   -0.1110   -3.7770 H   0  0
    5.8590   -0.1500   -6.2310 H   0  0
    0.3400   -0.3590   -5.3990 H   0  0
    1.7730   -2.2360    0.3810 H   0  0
    3.0940   -1.3650    3.4470 H   0  0
    3.2210    0.3300    3.1390 H   0  0
    4.4160   -0.2360   -8.2910 H   0  0
    0.1270   -0.4000   -7.8670 H   0  0
   -0.0390   -1.5310    2.6580 H   0  0
    0.3950   -0.1270   -0.7150 H   0  0
   -0.1600   -1.5020    0.1930 H   0  0
    0.2110    2.0410    1.6800 H   0  0
    1.8950    1.7360    2.1520 H   0  0
    1.4550    1.8360    0.4490 H   0  0
    1.1210   -0.8960    4.6050 H   0  0
    1.2320    0.7700    4.1170 H   0  0
    2.1560   -0.3400   -9.3090 H   0  0
   -1.0270    1.3240    2.9750 H   0  0
   -2.1000   -0.2690   -0.4200 H   0  0
   -2.2680   -1.1820    1.7870 H   0  0
   -1.1130    0.0800    5.1020 H   0  0
   -1.8090   -1.3090    4.3030 H   0  0
   -1.1950    1.6520   -0.8560 H   0  0
   -3.1210    1.4140    4.6870 H   0  0
   -3.5840   -0.0960    5.4370 H   0  0
   -4.2210    0.3480   -0.1860 H   0  0
   -4.4340    2.4550    2.4510 H   0  0
   -3.4490    2.4450    0.9920 H   0  0
   -2.6780    2.3990    2.5740 H   0  0
   -5.5780   -0.8480    4.5040 H   0  0
   -6.2910   -0.7620    0.1740 H   0  0
  1  2  1  0
  1  3  1  0
  2  4  2  0
  2  5  1  0
  3  6  1  0
  4  7  1  0
  5  8  2  0
  6  9  2  0
  6 10  1  0
  7 11  1  0
  7 12  2  0
 10 13  1  0
 10 14  1  0
 10 15  1  0
 11 16  2  0
 12 17  1  0
 14 18  1  0
 14 19  1  0
 14 20  1  0
 15 21  1  0
 16 22  1  0
 18 23  1  0
 19 24  1  0
 25 23  1  0
 23 26  1  0
 24 27  1  0
 25 28  1  0
 26 29  1  0
 28 30  1  0
 28 31  1  0
 28 32  1  0
 30 33  2  0
 31 34  2  0
 33 35  1  0
 35 36  2  0
  8 11  1  0
 17 22  2  0
 18 21  1  0
 24 25  1  0
 29 30  1  0
 34 35  1  0
  3 37  1  0
  3 38  1  0
  5 39  1  0
  8 40  1  0
 12 41  1  0
 13 42  1  0
 15 43  1  0
 15 44  1  0
 16 45  1  0
 17 46  1  0
 18 47  1  0
 19 48  1  0
 19 49  1  0
 20 50  1  0
 20 51  1  0
 20 52  1  0
 21 53  1  0
 21 54  1  0
 22 55  1  0
 23 56  1  0
 24 57  1  0
 25 58  1  0
 26 59  1  0
 26 60  1  0
 27 61  1  0
 29 62  1  0
 29 63  1  0
 31 64  1  0
 32 65  1  0
 32 66  1  0
 32 67  1  0
 33 68  1  0
 34 69  1  0
M  END
> <Name>
CHEMBL1940547

> <IC50 nM>
70.2

> <Molecule_ChEMBL_ID>
CHEMBL1940547

> <Smiles>
C[C@]12C=CC(=O)C=C1CC[C@@H]1[C@@H]2[C@@H](O)C[C@@]2(C)[C@H]1CC[C@]2(O)C(=O)CSc1ccc2ccccc2n1

$$$$
CHEMBL2086964
  SciTegic08162514323D

 47 50  0  0  0  0            999 V2000
   -1.2420    2.1330   -0.4300 O   0  0
   -0.2190    1.4940   -0.3400 C   0  0
   -0.2620    0.1620   -0.0350 N   0  0
    1.0860    2.1500   -0.5590 C   0  0
   -1.3320   -0.3850    0.1470 N   0  0
    1.1110    3.5350   -0.8730 O   0  0
    2.3850    1.6050   -0.5040 C   0  0
   -1.3730   -1.6330    0.4320 C   0  0
    2.4650    3.7930   -1.0040 C   0  0
    3.2010    2.6560   -0.7850 C   0  0
   -2.6970   -2.2890    0.6500 C   0  0
    3.0430    5.0430   -1.3180 C   0  0
    4.6210    2.6910   -0.8670 C   0  0
   -2.7640   -3.6560    0.9650 C   0  0
   -3.8810   -1.5370    0.5430 C   0  0
    4.4570    5.1110   -1.4080 C   0  0
    5.2500    3.9450   -1.1840 C   0  0
    5.4240    1.5390   -0.6480 C   0  0
   -4.0080   -4.2750    1.1720 C   0  0
   -5.1290   -2.1500    0.7480 C   0  0
    6.6620    4.0220   -1.2750 C   0  0
    6.8320    1.6330   -0.7420 C   0  0
   -4.0640   -5.5590    1.4670 O   0  0
   -5.1930   -3.5220    1.0650 C   0  0
   -6.2340   -1.4410    0.6470 O   0  0
    7.4470    2.8670   -1.0550 C   0  0
   -2.8420   -6.2740    1.5650 C   0  0
   -6.3610   -4.1000    1.2580 O   0  0
   -6.1110   -0.0390    0.4530 C   0  0
    0.5840   -0.3630    0.0390 H   0  0
    2.6540    0.5820   -0.2850 H   0  0
   -0.4490   -2.1900    0.5100 H   0  0
    2.4280    5.9140   -1.4840 H   0  0
   -1.8570   -4.2400    1.0490 H   0  0
   -3.8380   -0.4840    0.3030 H   0  0
    4.9200    6.0590   -1.6460 H   0  0
    4.9840    0.5820   -0.4080 H   0  0
    7.1560    4.9530   -1.5140 H   0  0
    7.4420    0.7560   -0.5760 H   0  0
    8.5240    2.9280   -1.1230 H   0  0
   -2.9120   -7.3340    1.8090 H   0  0
   -2.2270   -5.7970    2.3260 H   0  0
   -2.3180   -6.1860    0.6110 H   0  0
   -7.1680   -3.5720    1.1800 H   0  0
   -7.1130    0.3830    0.3790 H   0  0
   -5.4770    0.3590    1.2440 H   0  0
   -5.6060    0.1310   -0.4960 H   0  0
  1  2  2  0
  2  3  1  0
  2  4  1  0
  3  5  1  0
  4  6  1  0
  4  7  2  0
  5  8  2  0
  6  9  1  0
  7 10  1  0
  8 11  1  0
  9 12  1  0
 10 13  1  0
 11 14  2  0
 11 15  1  0
 12 16  2  0
 13 17  1  0
 13 18  2  0
 14 19  1  0
 15 20  2  0
 17 21  2  0
 18 22  1  0
 19 23  1  0
 19 24  2  0
 20 25  1  0
 21 26  1  0
 23 27  1  0
 24 28  1  0
 25 29  1  0
  9 10  2  0
 16 17  1  0
 20 24  1  0
 22 26  2  0
  3 30  1  0
  7 31  1  0
  8 32  1  0
 12 33  1  0
 14 34  1  0
 15 35  1  0
 16 36  1  0
 18 37  1  0
 21 38  1  0
 22 39  1  0
 26 40  1  0
 27 41  1  0
 27 42  1  0
 27 43  1  0
 28 44  1  0
 29 45  1  0
 29 46  1  0
 29 47  1  0
M  END
> <Name>
CHEMBL2086964

> <IC50 nM>
100000

> <Molecule_ChEMBL_ID>
CHEMBL2086964

> <Smiles>
COc1cc(/C=N/NC(=O)c2cc3c(ccc4ccccc43)o2)cc(OC)c1O

$$$$
CHEMBL306689
  SciTegic08162514323D

 51 53  0  0  0  0            999 V2000
    3.2380    3.7070   -1.8610 Cl  0  0
    1.5450    3.4730   -1.9690 C   0  0
    1.0060    2.1760   -1.8810 C   0  0
    0.6900    4.5760   -2.1460 C   0  0
   -0.3850    1.9850   -1.9690 C   0  0
   -0.6990    4.3830   -2.2360 C   0  0
   -1.2360    3.0880   -2.1480 C   0  0
   -0.9530    0.6130   -1.8750 C   0  0
   -1.1000    0.1840   -0.4770 N   0  0
   -0.1050   -0.5170    0.1560 C   0  0
   -2.3360    0.5180    0.2460 C   0  0
    0.1090   -1.8910   -0.1130 C   0  0
    0.7110    0.1510    1.0880 C   0  0
   -2.0530    1.2480    1.5100 C   0  0
    1.1470   -2.5800    0.5610 C   0  0
   -0.7540   -2.6090   -1.1020 C   0  0
    1.7380   -0.5370    1.7500 C   0  0
   -1.9020    2.6470    1.4960 C   0  0
   -1.9340    0.5410    2.7190 C   0  0
    1.3870   -3.9120    0.3260 N   0  0
    1.9550   -1.8980    1.4880 C   0  0
   -1.6330    3.3360    2.6910 C   0  0
   -1.6640    1.2330    3.9140 C   0  0
    1.7560   -4.4180   -1.1680 S   0  0
   -1.5140    2.6290    3.9000 C   0  0
    0.6020   -5.1350   -1.6840 O   0  0
    2.1020   -3.2480   -1.9530 O   0  0
    3.1580   -5.5290   -1.1390 C   0  0
    1.6540    1.3220   -1.7440 H   0  0
    1.0880    5.5800   -2.2150 H   0  0
   -1.3550    5.2310   -2.3750 H   0  0
   -2.3070    2.9450   -2.2190 H   0  0
   -1.9300    0.5900   -2.3610 H   0  0
   -0.3030   -0.0860   -2.3980 H   0  0
   -2.8790   -0.4000    0.4710 H   0  0
   -2.9710    1.1330   -0.3940 H   0  0
    0.5630    1.1990    1.3050 H   0  0
   -0.9370   -3.6250   -0.7520 H   0  0
   -1.6740   -2.0450   -1.2560 H   0  0
   -0.2360   -2.6720   -2.0570 H   0  0
    2.3610   -0.0190    2.4630 H   0  0
   -1.9920    3.1950    0.5700 H   0  0
   -2.0470   -0.5330    2.7360 H   0  0
    1.3320   -4.5680    1.0780 H   0  0
    2.7540   -2.4100    2.0120 H   0  0
   -1.5180    4.4100    2.6800 H   0  0
   -1.5720    0.6880    4.8420 H   0  0
   -1.3070    3.1600    4.8180 H   0  0
    3.4530   -5.9040   -2.1170 H   0  0
    2.9280   -6.3870   -0.5080 H   0  0
    4.0180   -5.0180   -0.7050 H   0  0
  1  2  1  0
  2  3  2  0
  2  4  1  0
  3  5  1  0
  4  6  2  0
  5  7  2  0
  5  8  1  0
  8  9  1  0
  9 10  1  0
  9 11  1  0
 10 12  2  0
 10 13  1  0
 11 14  1  0
 12 15  1  0
 12 16  1  0
 13 17  2  0
 14 18  2  0
 14 19  1  0
 15 20  1  0
 15 21  2  0
 18 22  1  0
 19 23  2  0
 20 24  1  0
 22 25  2  0
 24 26  2  0
 24 27  2  0
 24 28  1  0
  6  7  1  0
 17 21  1  0
 23 25  1  0
  3 29  1  0
  4 30  1  0
  6 31  1  0
  7 32  1  0
  8 33  1  0
  8 34  1  0
 11 35  1  0
 11 36  1  0
 13 37  1  0
 16 38  1  0
 16 39  1  0
 16 40  1  0
 17 41  1  0
 18 42  1  0
 19 43  1  0
 20 44  1  0
 21 45  1  0
 22 46  1  0
 23 47  1  0
 25 48  1  0
 28 49  1  0
 28 50  1  0
 28 51  1  0
M  END
> <Name>
CHEMBL306689

> <IC50 nM>
230

> <Molecule_ChEMBL_ID>
CHEMBL306689

> <Smiles>
Cc1c(NS(C)(=O)=O)cccc1N(Cc1ccccc1)Cc1cccc(Cl)c1

$$$$
CHEMBL2087295
  SciTegic08162514323D

 63 66  0  0  0  0            999 V2000
   -2.5740    0.3380    0.9610 Br  0  0
   -1.6740    1.4200    2.2310 C   0  0
   -0.3360    1.8690    2.0610 C   0  0
   -2.3910    1.7830    3.3850 C   0  0
    0.3770    1.5210    0.9320 N   0  0
    0.2620    2.6800    3.0640 C   0  0
   -1.7950    2.5820    4.3730 C   0  0
    0.1150    2.2070   -0.3440 C   0  0
    1.4040    0.4710    0.9790 C   0  0
    2.0370    3.3380    2.9490 Br  0  0
   -0.4770    3.0250    4.2130 C   0  0
   -2.5640    2.9550    5.5880 C   0  0
   -0.0470    3.6720   -0.1540 C   0  0
    0.9590   -0.7580    0.2710 C   0  0
   -2.9430    4.4120    5.5940 C   0  0
   -1.3240    4.2150    0.0780 C   0  0
    1.0740    4.5180   -0.2070 C   0  0
    0.2500   -1.7520    0.9670 C   0  0
    1.2500   -0.9300   -1.0940 C   0  0
   -3.2540    4.9780    4.5720 O   0  0
   -2.9060    5.0020    6.7850 O   0  0
   -1.4790    5.6000    0.2560 C   0  0
    0.9220    5.9040   -0.0270 C   0  0
   -0.1700   -2.9140    0.2970 C   0  0
    0.8300   -2.0920   -1.7620 C   0  0
   -2.6880    6.1130    0.4730 F   0  0
   -0.3550    6.4450    0.2030 C   0  0
    1.9840    6.7030   -0.0740 F   0  0
    0.1190   -3.0880   -1.0680 C   0  0
   -0.2750   -4.1780   -1.6950 O   0  0
    0.5410   -4.7110   -2.5840 C   0  0
    0.0430   -5.2330   -3.7930 C   0  0
    1.9220   -4.7600   -2.3220 C   0  0
    0.9240   -5.7990   -4.7320 C   0  0
   -1.4160   -5.1900   -4.0840 C   0  0
    2.8030   -5.3240   -3.2600 C   0  0
    2.3030   -5.8440   -4.4670 C   0  0
    3.2320   -6.4440   -5.4610 C   0  0
   -3.4100    1.4510    3.5290 H   0  0
   -0.7890    1.7950   -0.7910 H   0  0
    0.9410    2.0170   -1.0270 H   0  0
    2.3180    0.8440    0.5200 H   0  0
    1.6250    0.2320    2.0180 H   0  0
   -0.0350    3.6410    4.9840 H   0  0
   -1.9750    2.7230    6.4770 H   0  0
   -3.4610    2.3400    5.6560 H   0  0
   -2.1880    3.5660    0.1210 H   0  0
    2.0570    4.1030   -0.3850 H   0  0
    0.0230   -1.6270    2.0160 H   0  0
    1.7970   -0.1700   -1.6350 H   0  0
   -3.1370    5.9370    6.8580 H   0  0
   -0.7170   -3.6760    0.8340 H   0  0
    1.0550   -2.2190   -2.8110 H   0  0
   -0.4750    7.5100    0.3420 H   0  0
    2.3110   -4.3620   -1.3970 H   0  0
    0.5390   -6.1970   -5.6600 H   0  0
   -2.0160   -4.7330   -3.2990 H   0  0
   -1.7850   -6.2030   -4.2420 H   0  0
   -1.5860   -4.6270   -5.0040 H   0  0
    3.8610   -5.3580   -3.0510 H   0  0
    4.2560   -6.3690   -5.0920 H   0  0
    2.9320   -7.4690   -5.6680 H   0  0
    3.1740   -5.8830   -6.3950 H   0  0
  1  2  1  0
  2  3  2  0
  2  4  1  0
  3  5  1  0
  3  6  1  0
  4  7  2  0
  5  8  1  0
  5  9  1  0
  6 10  1  0
  6 11  2  0
  7 12  1  0
  8 13  1  0
  9 14  1  0
 12 15  1  0
 13 16  2  0
 13 17  1  0
 14 18  2  0
 14 19  1  0
 15 20  2  0
 15 21  1  0
 16 22  1  0
 17 23  2  0
 18 24  1  0
 19 25  2  0
 22 26  1  0
 22 27  2  0
 23 28  1  0
 24 29  2  0
 29 30  1  0
 30 31  1  0
 31 32  2  0
 31 33  1  0
 32 34  1  0
 32 35  1  0
 33 36  2  0
 34 37  2  0
 37 38  1  0
  7 11  1  0
 23 27  1  0
 25 29  1  0
 36 37  1  0
  4 39  1  0
  8 40  1  0
  8 41  1  0
  9 42  1  0
  9 43  1  0
 11 44  1  0
 12 45  1  0
 12 46  1  0
 16 47  1  0
 17 48  1  0
 18 49  1  0
 19 50  1  0
 21 51  1  0
 24 52  1  0
 25 53  1  0
 27 54  1  0
 33 55  1  0
 34 56  1  0
 35 57  1  0
 35 58  1  0
 35 59  1  0
 36 60  1  0
 38 61  1  0
 38 62  1  0
 38 63  1  0
M  END
> <Name>
CHEMBL2087295

> <IC50 nM>
1642

> <Molecule_ChEMBL_ID>
CHEMBL2087295

> <Smiles>
Cc1ccc(Oc2ccc(CN(Cc3cc(F)cc(F)c3)c3c(Br)cc(CC(=O)O)cc3Br)cc2)c(C)c1

$$$$
CHEMBL376264
  SciTegic08162514323D

 67 71  0  0  1  0            999 V2000
    3.1460    1.5700    2.9260 Cl  0  0
    1.8850    0.4450    2.6110 C   0  0
    1.1970   -0.1820    3.6700 C   0  0
    1.5390    0.1520    1.2770 C   0  0
    1.5040    0.0760    4.9280 O   0  0
    0.1660   -1.0940    3.3870 C   0  0
    0.5100   -0.7620    1.0000 C   0  0
    0.7710   -0.5920    5.9430 C   0  0
   -0.1780   -1.3850    2.0570 C   0  0
    0.1460   -1.0700   -0.4080 C   0  0  2  0  0  0
    1.2790   -0.1600    7.2930 C   0  0
    0.9370   -0.1820   -1.3610 C   0  0
   -1.3890   -1.0100   -0.6390 C   0  0
    0.5800   -0.5160    8.3850 C   0  0
    2.1410   -0.5570   -1.8690 C   0  0
    0.3220    1.1740   -1.7170 C   0  0  2  0  0  0
   -1.9060    0.4370   -0.7600 C   0  0  1  0  0  0
    2.7750    0.2170   -2.9610 C   0  0
    2.9060   -1.7680   -1.3710 C   0  0
   -1.1950    1.0570   -1.9770 C   0  0  1  0  0  0
    1.0610    1.9820   -2.8150 C   0  0
   -3.4080    0.6950   -1.0680 C   0  0  2  0  0  0
   -1.5570    1.2420    0.5040 C   0  0
    4.0980    0.1270   -3.2190 C   0  0
    1.8770    1.1150   -3.7720 C   0  0
    4.4220   -1.4980   -1.2520 C   0  0
   -1.9430    2.3870   -2.1090 C   0  0
   -4.1920    0.7360    0.1170 O   0  0
   -4.0180   -0.3200   -1.9430 C   0  0
   -3.4010    2.0820   -1.7480 C   0  0
    4.9960   -0.7320   -2.4220 C   0  0
   -4.5350   -1.1370   -2.6390 C   0  0
    6.1660   -0.8130   -2.7030 O   0  0
   -5.1800   -2.1350   -3.4880 C   0  0
    2.0620    0.6290    0.4590 H   0  0
   -0.3670   -1.5760    4.1930 H   0  0
    0.9160   -1.6640    5.8200 H   0  0
   -0.2790   -0.3220    5.8400 H   0  0
   -0.9730   -2.0900    1.8500 H   0  0
    0.4240   -2.1090   -0.5670 H   0  0
    2.1700    0.4220    7.4840 H   0  0
   -1.6350   -1.5880   -1.5430 H   0  0
   -1.9160   -1.5180    0.1800 H   0  0
    0.8160   -0.2830    9.4120 H   0  0
   -0.3090   -1.0980    8.1930 H   0  0
    0.4390    1.7870   -0.8260 H   0  0
    2.5530   -2.0860   -0.3890 H   0  0
    2.7300   -2.5960   -2.0510 H   0  0
   -1.3610    0.4630   -2.8710 H   0  0
    1.7500    2.6740   -2.3260 H   0  0
    0.3730    2.6110   -3.3790 H   0  0
   -1.8850    2.2790    0.4300 H   0  0
   -0.4810    1.2440    0.6760 H   0  0
   -2.0330    0.8070    1.3830 H   0  0
    4.5200    0.6970   -4.0310 H   0  0
    1.2130    0.4980   -4.3790 H   0  0
    2.4510    1.7400   -4.4530 H   0  0
    4.6190   -0.9280   -0.3440 H   0  0
    4.9510   -2.4430   -1.1390 H   0  0
   -1.8580    2.8110   -3.0980 H   0  0
   -1.5410    3.1110   -1.4140 H   0  0
   -5.0470    1.1270   -0.1170 H   0  0
   -3.7680    2.8610   -1.0940 H   0  0
   -4.0260    2.1230   -2.6330 H   0  0
   -4.5370   -3.0080   -3.5860 H   0  0
   -5.3650   -1.7170   -4.4790 H   0  0
   -6.1310   -2.4430   -3.0550 H   0  0
  1  2  1  0
  2  3  2  0
  2  4  1  0
  3  5  1  0
  3  6  1  0
  4  7  2  0
  5  8  1  0
  6  9  2  0
 10  7  1  0
  8 11  1  0
 10 12  1  0
 10 13  1  0
 11 14  2  0
 12 15  2  0
 12 16  1  0
 13 17  1  0
 15 18  1  0
 15 19  1  0
 16 20  1  0
 16 21  1  0
 17 22  1  0
 17 23  1  0
 18 24  2  0
 18 25  1  0
 19 26  1  0
 20 27  1  0
 22 28  1  0
 22 29  1  0
 22 30  1  0
 24 31  1  0
 29 32  3  0
 31 33  2  0
 32 34  1  0
  7  9  1  0
 17 20  1  0
 21 25  1  0
 26 31  1  0
 27 30  1  0
  4 35  1  0
  6 36  1  0
  8 37  1  0
  8 38  1  0
  9 39  1  0
 10 40  1  0
 11 41  1  0
 13 42  1  0
 13 43  1  0
 14 44  1  0
 14 45  1  0
 16 46  1  0
 19 47  1  0
 19 48  1  0
 20 49  1  0
 21 50  1  0
 21 51  1  0
 23 52  1  0
 23 53  1  0
 23 54  1  0
 24 55  1  0
 25 56  1  0
 25 57  1  0
 26 58  1  0
 26 59  1  0
 27 60  1  0
 27 61  1  0
 28 62  1  0
 30 63  1  0
 30 64  1  0
 34 65  1  0
 34 66  1  0
 34 67  1  0
M  END
> <Name>
CHEMBL376264

> <IC50 nM>
0.4

> <Molecule_ChEMBL_ID>
CHEMBL376264

> <Smiles>
C=CCOc1ccc([C@H]2C[C@@]3(C)[C@@H](CC[C@@]3(O)C#CC)[C@@H]3CCC4=CC(=O)CCC4=C32)cc1Cl

$$$$
CHEMBL1684351
  SciTegic08162514323D

 62 67  0  0  1  0            999 V2000
    1.5980    1.0550    1.5190 F   0  0
    1.6620   -0.2770    1.5330 C   0  0
    2.9200   -0.9340    1.4900 C   0  0
    0.4630   -1.0410    1.5900 C   0  0
    2.9900   -2.3480    1.5060 C   0  0
    4.1480   -0.1460    1.4300 C   0  0
    0.5310   -2.4690    1.6030 C   0  0
   -0.8540   -0.3420    1.6350 C   0  0  1  0  0  0
    4.1620   -2.9840    1.4710 F   0  0
    1.7990   -3.1060    1.5620 C   0  0
    4.4040    0.7340    0.3480 C   0  0
    5.1130   -0.2580    2.4670 C   0  0
   -0.5920   -3.2340    1.6540 N   0  0
   -1.9900   -1.2400    1.1070 C   0  0  2  0  0  0
   -1.1370    0.1640    3.0550 C   0  0
    3.6780    1.0590   -0.7910 N   0  0
    5.5620    1.4710    0.2930 C   0  0
    6.3090    0.5080    2.4040 C   0  0
   -1.9610   -2.6540    1.7380 C   0  0
   -1.8620   -1.3500   -0.3070 O   0  0
    4.4390    2.0060   -1.5180 C   0  0
    6.5430    1.3830    1.3100 C   0  0
    5.6290    2.2500   -0.8070 C   0  0
   -2.9440   -3.5760    1.0040 C   0  0
   -2.3710   -2.5940    3.2130 C   0  0
   -2.2600   -0.2500   -0.9380 C   0  0
   -2.7310    0.7150   -0.3790 O   0  0
   -2.1120   -0.2560   -2.2950 N   0  0
   -2.4870    0.8130   -3.0160 C   0  0
   -3.6840    1.5020   -2.7130 C   0  0
   -1.6940    1.2700   -4.0920 C   0  0
   -4.0980    2.6350   -3.4610 C   0  0
   -2.1080    2.3970   -4.8340 C   0  0
   -5.1680    3.4240   -3.3500 O   0  0
   -3.3090    3.0840   -4.5240 C   0  0
   -5.1100    4.4490   -4.3650 C   0  0
   -3.8870    4.1500   -5.0760 O   0  0
   -0.8150    0.5330    0.9840 H   0  0
    1.8710   -4.1860    1.5740 H   0  0
    4.9530   -0.9180    3.3070 H   0  0
   -0.5160   -4.2320    1.6430 H   0  0
   -2.9530   -0.7660    1.2950 H   0  0
   -0.7150    1.1580    3.2010 H   0  0
   -2.2110    0.2030    3.2420 H   0  0
   -0.6940   -0.4980    3.7970 H   0  0
    2.7910    0.6950   -1.0530 H   0  0
    7.0430    0.4240    3.1930 H   0  0
    4.1230    2.4430   -2.4550 H   0  0
    7.4530    1.9630    1.2660 H   0  0
    6.4240    2.9260   -1.0940 H   0  0
   -2.6800   -3.6950   -0.0470 H   0  0
   -3.9550   -3.1760    1.0510 H   0  0
   -2.9550   -4.5660    1.4590 H   0  0
   -1.5490   -2.2660    3.8500 H   0  0
   -2.6920   -3.5760    3.5640 H   0  0
   -3.2010   -1.9020    3.3550 H   0  0
   -1.7230   -1.0550   -2.7520 H   0  0
   -4.3130    1.1740   -1.8970 H   0  0
   -0.7720    0.7710   -4.3560 H   0  0
   -1.4980    2.7420   -5.6560 H   0  0
   -5.0490    5.4260   -3.9080 H   0  0
   -5.9610    4.3690   -5.0290 H   0  0
  1  2  1  0
  2  3  2  0
  2  4  1  0
  3  5  1  0
  3  6  1  0
  4  7  2  0
  4  8  1  0
  5  9  1  0
  5 10  2  0
  6 11  2  0
  6 12  1  0
  7 13  1  0
  8 14  1  0
  8 15  1  0
 11 16  1  0
 11 17  1  0
 12 18  2  0
 13 19  1  0
 14 20  1  0
 16 21  1  0
 17 22  2  0
 17 23  1  0
 19 24  1  0
 19 25  1  0
 20 26  1  0
 26 27  2  0
 26 28  1  0
 28 29  1  0
 29 30  2  0
 29 31  1  0
 30 32  1  0
 31 33  2  0
 32 34  1  0
 32 35  2  0
 34 36  1  0
 35 37  1  0
  7 10  1  0
 14 19  1  0
 18 22  1  0
 21 23  2  0
 33 35  1  0
 36 37  1  0
  8 38  1  0
 10 39  1  0
 12 40  1  0
 13 41  1  0
 14 42  1  0
 15 43  1  0
 15 44  1  0
 15 45  1  0
 16 46  1  0
 18 47  1  0
 21 48  1  0
 22 49  1  0
 23 50  1  0
 24 51  1  0
 24 52  1  0
 24 53  1  0
 25 54  1  0
 25 55  1  0
 25 56  1  0
 28 57  1  0
 30 58  1  0
 31 59  1  0
 33 60  1  0
 36 61  1  0
 36 62  1  0
M  END
> <Name>
CHEMBL1684351

> <IC50 nM>
8.5

> <Molecule_ChEMBL_ID>
CHEMBL1684351

> <Smiles>
C[C@H]1c2c(cc(F)c(-c3cccc4cc[nH]c34)c2F)NC(C)(C)[C@@H]1OC(=O)Nc1ccc2c(c1)OCO2

$$$$
CHEMBL1684230
  SciTegic08162514323D

 52 55  0  0  1  0            999 V2000
    0.8520    1.7110    0.6890 F   0  0
    0.9160    0.3770    0.7010 C   0  0
    2.1740   -0.2770    0.6580 C   0  0
   -0.2830   -0.3850    0.7580 C   0  0
    2.2440   -1.6930    0.6760 C   0  0
    3.4020    0.5080    0.6000 C   0  0
   -0.2150   -1.8140    0.7730 C   0  0
   -1.6000    0.3130    0.8050 C   0  0  1  0  0  0
    3.4160   -2.3280    0.6390 F   0  0
    1.0530   -2.4510    0.7320 C   0  0
    3.6800    1.3550   -0.5040 C   0  0
    4.3480    0.4300    1.6560 C   0  0
   -1.3380   -2.5800    0.8240 N   0  0
   -2.7360   -0.5860    0.2770 C   0  0  2  0  0  0
   -1.8830    0.8200    2.2230 C   0  0
    2.9750    1.6450   -1.6660 N   0  0
    4.8360    2.0940   -0.5590 C   0  0
    5.5430    1.1950    1.5960 C   0  0
   -2.7070   -1.9980    0.9060 C   0  0
   -2.6070   -0.6950   -1.1390 O   0  0
    3.7480    2.5720   -2.4060 C   0  0
    5.7970    2.0370    0.4800 C   0  0
    4.9240    2.8380   -1.6820 C   0  0
   -3.6900   -2.9200    0.1720 C   0  0
   -3.1170   -1.9390    2.3830 C   0  0
   -3.0230    0.3980   -1.7700 C   0  0
   -3.5080    1.3550   -1.2130 O   0  0
   -2.8710    0.3950   -3.1270 N   0  0
   -3.3050    1.5640   -3.9040 C   0  0
   -1.5610    1.1880    0.1540 H   0  0
    1.1250   -3.5310    0.7420 H   0  0
    4.1700   -0.2050    2.5140 H   0  0
   -1.2620   -3.5780    0.8120 H   0  0
   -3.6990   -0.1110    0.4650 H   0  0
   -1.4960    1.8260    2.3810 H   0  0
   -1.4240    0.1660    2.9650 H   0  0
   -2.9550    0.8420    2.4160 H   0  0
    2.0920    1.2730   -1.9340 H   0  0
    6.2620    1.1390    2.3980 H   0  0
    3.4490    2.9810   -3.3630 H   0  0
    6.7070    2.6190    0.4350 H   0  0
    5.7250    3.5060   -1.9730 H   0  0
   -3.4260   -3.0390   -0.8790 H   0  0
   -4.7010   -2.5220    0.2190 H   0  0
   -3.6990   -3.9120    0.6270 H   0  0
   -2.2870   -1.6370    3.0210 H   0  0
   -3.4630   -2.9140    2.7250 H   0  0
   -3.9280   -1.2290    2.5290 H   0  0
   -2.4710   -0.3960   -3.5880 H   0  0
   -3.0570    1.4100   -4.9550 H   0  0
   -4.3650    1.7400   -3.7290 H   0  0
   -2.7600    2.4450   -3.5610 H   0  0
  1  2  1  0
  2  3  2  0
  2  4  1  0
  3  5  1  0
  3  6  1  0
  4  7  2  0
  4  8  1  0
  5  9  1  0
  5 10  2  0
  6 11  2  0
  6 12  1  0
  7 13  1  0
  8 14  1  0
  8 15  1  0
 11 16  1  0
 11 17  1  0
 12 18  2  0
 13 19  1  0
 14 20  1  0
 16 21  1  0
 17 22  2  0
 17 23  1  0
 19 24  1  0
 19 25  1  0
 20 26  1  0
 26 27  2  0
 26 28  1  0
 28 29  1  0
  7 10  1  0
 14 19  1  0
 18 22  1  0
 21 23  2  0
  8 30  1  0
 10 31  1  0
 12 32  1  0
 13 33  1  0
 14 34  1  0
 15 35  1  0
 15 36  1  0
 15 37  1  0
 16 38  1  0
 18 39  1  0
 21 40  1  0
 22 41  1  0
 23 42  1  0
 24 43  1  0
 24 44  1  0
 24 45  1  0
 25 46  1  0
 25 47  1  0
 25 48  1  0
 28 49  1  0
 29 50  1  0
 29 51  1  0
 29 52  1  0
M  END
> <Name>
CHEMBL1684230

> <IC50 nM>
1000

> <Molecule_ChEMBL_ID>
CHEMBL1684230

> <Smiles>
CNC(=O)O[C@@H]1[C@@H](C)c2c(cc(F)c(-c3cccc4cc[nH]c34)c2F)NC1(C)C

$$$$
CHEMBL1684343
  SciTegic08162514323D

 58 61  0  0  1  0            999 V2000
    7.7620    1.6230   -1.7360 Cl  0  0
    6.2750    0.9240   -1.2340 C   0  0
    5.5920    1.1370   -0.0840 C   0  0
    5.5190   -0.0100   -1.9650 C   0  0
    4.4340    0.3970   -0.0250 C   0  0
    5.9610    2.0040    0.9780 C   0  0
    4.3690   -0.3340   -1.2050 N   0  0
    3.5700    0.4710    1.0980 C   0  0
    5.1110    2.0940    2.1110 C   0  0
    2.3420   -0.3140    1.1560 C   0  0
    3.9160    1.3280    2.1740 C   0  0
    1.0840    0.3400    1.1990 C   0  0
    2.4100   -1.7290    1.1740 C   0  0
    1.0170    1.6740    1.1870 F   0  0
   -0.1170   -0.4220    1.2560 C   0  0
    3.5820   -2.3650    1.1370 F   0  0
    1.2210   -2.4880    1.2300 C   0  0
   -0.0490   -1.8520    1.2710 C   0  0
   -1.4340    0.2750    1.3030 C   0  0  1  0  0  0
   -1.1720   -2.6150    1.3220 N   0  0
   -2.5690   -0.6230    0.7750 C   0  0  2  0  0  0
   -1.7170    0.7830    2.7210 C   0  0
   -2.5410   -2.0350    1.4040 C   0  0
   -2.4420   -0.7320   -0.6410 O   0  0
   -3.5240   -2.9570    0.6700 C   0  0
   -2.9510   -1.9770    2.8810 C   0  0
   -2.8560    0.3630   -1.2720 C   0  0
   -3.3280    1.3240   -0.7130 O   0  0
   -2.7170    0.3540   -2.6310 N   0  0
   -3.1490    1.5230   -3.4080 C   0  0
   -2.2070    2.7070   -3.1860 C   0  0
   -3.3130    1.1700   -4.8870 C   0  0
    5.7380   -0.4320   -2.9380 H   0  0
    6.8670    2.5900    0.9410 H   0  0
    3.6520   -0.9690   -1.4730 H   0  0
    5.3750    2.7460    2.9300 H   0  0
    3.2810    1.4100    3.0450 H   0  0
    1.2930   -3.5660    1.2400 H   0  0
   -1.3930    1.1500    0.6520 H   0  0
   -1.0960   -3.6150    1.3110 H   0  0
   -3.5330   -0.1480    0.9630 H   0  0
   -1.3540    1.8010    2.8690 H   0  0
   -1.2350    0.1450    3.4630 H   0  0
   -2.7870    0.7790    2.9240 H   0  0
   -3.2520   -3.0860   -0.3790 H   0  0
   -4.5330   -2.5510    0.7070 H   0  0
   -3.5430   -3.9430    1.1330 H   0  0
   -2.1310   -1.6390    3.5160 H   0  0
   -3.2620   -2.9590    3.2320 H   0  0
   -3.7850   -1.2910    3.0210 H   0  0
   -2.3260   -0.4430   -3.0920 H   0  0
   -4.1170    1.7110   -2.9470 H   0  0
   -2.1250    2.9710   -2.1310 H   0  0
   -2.5610    3.5880   -3.7230 H   0  0
   -1.2050    2.4750   -3.5490 H   0  0
   -3.9980    0.3300   -5.0080 H   0  0
   -3.6940    2.0240   -5.4470 H   0  0
   -2.3560    0.8850   -5.3220 H   0  0
  1  2  1  0
  2  3  1  0
  2  4  2  0
  3  5  1  0
  3  6  2  0
  4  7  1  0
  5  8  2  0
  6  9  1  0
  8 10  1  0
  8 11  1  0
 10 12  2  0
 10 13  1  0
 12 14  1  0
 12 15  1  0
 13 16  1  0
 13 17  2  0
 15 18  2  0
 15 19  1  0
 18 20  1  0
 19 21  1  0
 19 22  1  0
 20 23  1  0
 21 24  1  0
 23 25  1  0
 23 26  1  0
 24 27  1  0
 27 28  2  0
 27 29  1  0
 29 30  1  0
 30 31  1  0
 30 32  1  0
  5  7  1  0
  9 11  2  0
 17 18  1  0
 21 23  1  0
  4 33  1  0
  6 34  1  0
  7 35  1  0
  9 36  1  0
 11 37  1  0
 17 38  1  0
 19 39  1  0
 20 40  1  0
 21 41  1  0
 22 42  1  0
 22 43  1  0
 22 44  1  0
 25 45  1  0
 25 46  1  0
 25 47  1  0
 26 48  1  0
 26 49  1  0
 26 50  1  0
 29 51  1  0
 30 52  1  0
 31 53  1  0
 31 54  1  0
 31 55  1  0
 32 56  1  0
 32 57  1  0
 32 58  1  0
M  END
> <Name>
CHEMBL1684343

> <IC50 nM>
17

> <Molecule_ChEMBL_ID>
CHEMBL1684343

> <Smiles>
CC(C)NC(=O)O[C@@H]1[C@@H](C)c2c(cc(F)c(-c3cccc4c(Cl)c[nH]c34)c2F)NC1(C)C

$$$$
CHEMBL1668086
  SciTegic08162514323D

 64 67  0  0  1  0            999 V2000
   -1.9690   -6.3180    2.1270 S   0  0
   -2.9220   -5.8200    3.1040 O   0  0
   -2.5900   -7.0840    1.0610 O   0  0
   -1.2770   -4.9140    1.3710 N   0  0
   -0.7750   -7.3570    2.9650 C   0  0
   -2.1470   -4.0740    0.5650 C   0  0  2  0  0  0
   -1.1890   -8.8110    3.0290 C   0  0
   -0.1170   -8.3670    2.0530 C   0  0
   -1.3220   -3.1270   -0.3050 C   0  0
   -3.1520   -3.3380    1.4510 C   0  0
   -2.1520   -2.5120   -1.3510 N   0  0
   -2.2660   -1.1700   -1.4200 C   0  0
   -1.0330   -0.4410   -1.5290 C   0  0
   -3.5100   -0.4880   -1.3910 C   0  0
   -1.1110    0.9420   -1.6010 C   0  0
    0.2440   -1.0020   -1.5660 C   0  0
   -3.5390    0.9300   -1.4710 C   0  0
    0.1910    1.3110   -1.6930 N   0  0
   -2.3300    1.6600   -1.5760 C   0  0
    0.9570    0.1700   -1.6720 N   0  0
   -4.8260    1.6390   -1.4410 C   0  0
    0.6760    2.5780   -1.7910 C   0  0
    1.7950    2.9670   -1.0270 C   0  0
    0.0630    3.5020   -2.6540 C   0  0
    2.2950    4.2790   -1.1290 C   0  0
    0.5630    4.8130   -2.7560 C   0  0
    3.4810    4.6920   -0.3200 C   0  0
    1.6780    5.2010   -1.9940 C   0  0
    4.2870    3.8770    0.0610 O   0  0
    3.6370    6.0140   -0.0140 N   0  0
    4.7990    6.4380    0.7830 C   0  0
    4.7660    5.8090    2.1760 C   0  0
    6.1040    6.1580    0.0390 C   0  0
   -0.8320   -4.3220    2.0860 H   0  0
   -0.2360   -6.8710    3.7770 H   0  0
   -2.6500   -4.8220   -0.0510 H   0  0
   -2.1620   -9.0880    2.6190 H   0  0
   -0.8750   -9.3890    3.8990 H   0  0
    0.9140   -8.6470    2.2680 H   0  0
   -0.3750   -8.3480    0.9920 H   0  0
   -0.8710   -2.3420    0.3010 H   0  0
   -0.4920   -3.6560   -0.7730 H   0  0
   -3.8340   -4.0270    1.9510 H   0  0
   -3.7520   -2.6460    0.8590 H   0  0
   -2.6390   -2.7620    2.2190 H   0  0
   -2.6390   -3.0780   -2.0160 H   0  0
   -4.4360   -1.0410   -1.3090 H   0  0
    0.6190   -2.0180   -1.5310 H   0  0
   -2.3380    2.7400   -1.6370 H   0  0
   -5.6950    0.9880   -1.3530 H   0  0
   -4.9400    2.2250   -2.3530 H   0  0
   -4.8420    2.3300   -0.5980 H   0  0
    2.2750    2.2660   -0.3590 H   0  0
   -0.7970    3.2230   -3.2500 H   0  0
    0.0900    5.5220   -3.4200 H   0  0
    2.0570    6.2090   -2.0780 H   0  0
    2.9670    6.6880   -0.3280 H   0  0
    4.6090    7.5100    0.8400 H   0  0
    4.9570    4.7360    2.1410 H   0  0
    3.7930    5.9590    2.6450 H   0  0
    5.5200    6.2600    2.8200 H   0  0
    6.0550    6.5350   -0.9820 H   0  0
    6.9470    6.6230    0.5490 H   0  0
    6.2970    5.0860   -0.0120 H   0  0
  1  2  2  0
  1  3  2  0
  1  4  1  0
  1  5  1  0
  4  6  1  0
  5  7  1  0
  5  8  1  0
  6  9  1  0
  6 10  1  0
  9 11  1  0
 11 12  1  0
 12 13  2  0
 12 14  1  0
 13 15  1  0
 13 16  1  0
 14 17  2  0
 15 18  1  0
 15 19  2  0
 16 20  2  0
 17 21  1  0
 18 22  1  0
 22 23  2  0
 22 24  1  0
 23 25  1  0
 24 26  2  0
 25 27  1  0
 25 28  2  0
 27 29  2  0
 27 30  1  0
 30 31  1  0
 31 32  1  0
 31 33  1  0
  7  8  1  0
 17 19  1  0
 18 20  1  0
 26 28  1  0
  4 34  1  0
  5 35  1  0
  6 36  1  0
  7 37  1  0
  7 38  1  0
  8 39  1  0
  8 40  1  0
  9 41  1  0
  9 42  1  0
 10 43  1  0
 10 44  1  0
 10 45  1  0
 11 46  1  0
 14 47  1  0
 16 48  1  0
 19 49  1  0
 21 50  1  0
 21 51  1  0
 21 52  1  0
 23 53  1  0
 24 54  1  0
 26 55  1  0
 28 56  1  0
 30 57  1  0
 31 58  1  0
 32 59  1  0
 32 60  1  0
 32 61  1  0
 33 62  1  0
 33 63  1  0
 33 64  1  0
M  END
> <Name>
CHEMBL1668086

> <IC50 nM>
15.85

> <Molecule_ChEMBL_ID>
CHEMBL1668086

> <Smiles>
Cc1cc(NC[C@H](C)NS(=O)(=O)C2CC2)c2cnn(-c3cccc(C(=O)NC(C)C)c3)c2c1

$$$$
CHEMBL1668087
  SciTegic08162514323D

 62 65  0  0  1  0            999 V2000
   -0.7250   -6.0200    1.7110 S   0  0
    0.2230   -5.7090    0.6560 O   0  0
   -0.1230   -6.0390    3.0330 O   0  0
   -1.8710   -4.7110    1.7270 N   0  0
   -1.4510   -7.6210    1.3830 C   0  0
   -2.6130   -4.4400    0.5080 C   0  0  2  0  0  0
   -0.7950   -8.7440    2.1540 C   0  0
   -2.1500   -8.2170    2.5840 C   0  0
   -2.9790   -2.9570    0.4220 C   0  0
   -3.8320   -5.3560    0.4060 C   0  0
   -1.7730   -2.1230    0.2970 N   0  0
   -1.8870   -0.7810    0.2290 C   0  0
   -0.6540   -0.0530    0.1190 C   0  0
   -3.1310   -0.1000    0.2560 C   0  0
   -0.7320    1.3300    0.0470 C   0  0
    0.6230   -0.6130    0.0820 C   0  0
   -3.1600    1.3180    0.1780 C   0  0
    0.5700    1.7010   -0.0450 N   0  0
   -1.9510    2.0490    0.0720 C   0  0
    1.3360    0.5580   -0.0230 N   0  0
   -4.4470    2.0270    0.2070 C   0  0
    1.0550    2.9670   -0.1420 C   0  0
    2.0820    3.2620   -1.0600 C   0  0
    0.5310    3.9860    0.6760 C   0  0
    2.5820    4.5740   -1.1580 C   0  0
    1.0310    5.2950    0.5740 C   0  0
    3.6720    4.8870   -2.1310 C   0  0
    2.0570    5.5900   -0.3400 C   0  0
    3.8200    4.2270   -3.1330 O   0  0
    4.5020    5.9390   -1.8710 N   0  0
    5.5780    6.2620   -2.8180 C   0  0
    6.3830    7.4490   -2.3590 C   0  0
    6.1190    8.0200   -1.3280 O   0  0
    7.4240    7.8750   -3.1350 N   0  0
   -2.5490   -4.8580    2.4880 H   0  0
   -1.8240   -7.7540    0.3670 H   0  0
   -1.8730   -4.6970   -0.2520 H   0  0
    0.0630   -8.5040    2.7830 H   0  0
   -0.7580   -9.7270    1.6840 H   0  0
   -3.0210   -8.8480    2.4010 H   0  0
   -2.1970   -7.6250    3.4980 H   0  0
   -3.5390   -2.6470    1.3030 H   0  0
   -3.6330   -2.7700   -0.4300 H   0  0
   -4.3560   -5.1970   -0.5390 H   0  0
   -3.5350   -6.4010    0.4790 H   0  0
   -4.5350   -5.1510    1.2130 H   0  0
   -0.8710   -2.5510    0.2640 H   0  0
   -4.0570   -0.6520    0.3380 H   0  0
    0.9980   -1.6290    0.1170 H   0  0
   -1.9590    3.1290    0.0120 H   0  0
   -5.3180    1.3770    0.2910 H   0  0
   -4.5590    2.6170   -0.7030 H   0  0
   -4.4650    2.7150    1.0530 H   0  0
    2.4920    2.4860   -1.6930 H   0  0
   -0.2580    3.7790    1.3850 H   0  0
    0.6290    6.0760    1.2030 H   0  0
    2.4360    6.6000   -0.4100 H   0  0
    4.3710    6.4820   -1.0410 H   0  0
    5.1470    6.4650   -3.7970 H   0  0
    6.2290    5.3940   -2.9300 H   0  0
    7.9880    8.6580   -2.8750 H   0  0
    7.6410    7.4020   -3.9900 H   0  0
  1  2  2  0
  1  3  2  0
  1  4  1  0
  1  5  1  0
  4  6  1  0
  5  7  1  0
  5  8  1  0
  6  9  1  0
  6 10  1  0
  9 11  1  0
 11 12  1  0
 12 13  2  0
 12 14  1  0
 13 15  1  0
 13 16  1  0
 14 17  2  0
 15 18  1  0
 15 19  2  0
 16 20  2  0
 17 21  1  0
 18 22  1  0
 22 23  2  0
 22 24  1  0
 23 25  1  0
 24 26  2  0
 25 27  1  0
 25 28  2  0
 27 29  2  0
 27 30  1  0
 30 31  1  0
 31 32  1  0
 32 33  2  0
 32 34  1  0
  7  8  1  0
 17 19  1  0
 18 20  1  0
 26 28  1  0
  4 35  1  0
  5 36  1  0
  6 37  1  0
  7 38  1  0
  7 39  1  0
  8 40  1  0
  8 41  1  0
  9 42  1  0
  9 43  1  0
 10 44  1  0
 10 45  1  0
 10 46  1  0
 11 47  1  0
 14 48  1  0
 16 49  1  0
 19 50  1  0
 21 51  1  0
 21 52  1  0
 21 53  1  0
 23 54  1  0
 24 55  1  0
 26 56  1  0
 28 57  1  0
 30 58  1  0
 31 59  1  0
 31 60  1  0
 34 61  1  0
 34 62  1  0
M  END
> <Name>
CHEMBL1668087

> <IC50 nM>
7.94

> <Molecule_ChEMBL_ID>
CHEMBL1668087

> <Smiles>
Cc1cc(NC[C@H](C)NS(=O)(=O)C2CC2)c2cnn(-c3cccc(C(=O)NCC(N)=O)c3)c2c1

$$$$
CHEMBL193523
  SciTegic08162514323D

 63 66  0  0  1  0            999 V2000
    0.8810   -7.5330    0.0290 F   0  0
    0.1390   -6.4280   -0.0140 C   0  0
    0.6880   -5.2300   -0.5060 C   0  0
   -1.1930   -6.4590    0.4340 C   0  0
   -0.0980   -4.0620   -0.5510 C   0  0
   -1.9750   -5.2930    0.3890 C   0  0
   -1.4320   -4.0920   -0.1040 C   0  0
    0.4920   -2.8030   -1.0740 C   0  0
   -2.1760   -3.0040   -0.1410 O   0  0
    0.8420   -2.2580    0.3100 C   0  0
   -0.5510   -1.9510   -1.7990 C   0  0
    1.7310   -3.0720   -1.9320 C   0  0
    1.3200   -0.8070    0.2710 C   0  0  1  0  0  0
    2.1950   -0.6600   -0.8240 O   0  0
    0.1840    0.1700    0.1370 C   0  0
    2.0700   -0.3960    1.5390 C   0  0
   -0.8590   -0.0040    0.7270 O   0  0
    0.3480    1.2640   -0.6640 N   0  0
    2.3150    1.0680    1.5820 C   0  0
   -0.6480    2.1510   -0.8030 C   0  0
    1.3460    1.9280    2.1350 C   0  0
    3.5120    1.5980    1.0700 C   0  0
   -1.9920    1.7090   -0.9160 C   0  0
   -0.3730    3.5430   -0.8360 C   0  0
    1.5780    3.3150    2.1740 C   0  0
    3.7420    2.9830    1.1090 C   0  0
   -3.0510    2.6410   -1.0650 C   0  0
   -1.4320    4.4710   -0.9810 C   0  0
    2.7770    3.8420    1.6620 C   0  0
    0.5570    4.2230    2.7580 C   0  0
   -2.7580    3.9900   -1.0940 C   0  0
   -4.5550    2.5220   -1.2110 C   0  0
   -3.9750    4.7640   -1.2480 C   0  0
   -5.0200    3.9020   -1.3180 O   0  0
   -4.0140    5.9710   -1.3030 O   0  0
    1.7110   -5.2090   -0.8500 H   0  0
   -1.6170   -7.3750    0.8140 H   0  0
   -2.9980   -5.3200    0.7340 H   0  0
   -2.0510   -2.3220    0.5310 H   0  0
   -0.0040   -2.3650    0.9900 H   0  0
    1.5800   -2.8930    0.8010 H   0  0
   -1.1780   -1.3960   -1.1000 H   0  0
   -1.2030   -2.5760   -2.4080 H   0  0
   -0.0680   -1.2280   -2.4590 H   0  0
    2.6110   -3.2730   -1.3200 H   0  0
    1.9550   -2.2150   -2.5670 H   0  0
    1.5700   -3.9340   -2.5800 H   0  0
    2.7400    0.1230   -0.6520 H   0  0
    1.5160   -0.6990    2.4280 H   0  0
    3.0200   -0.9260    1.6130 H   0  0
    1.2110    1.4020   -1.1490 H   0  0
    0.4260    1.5240    2.5270 H   0  0
    4.2580    0.9430    0.6440 H   0  0
   -2.2320    0.6560   -0.8930 H   0  0
    0.6410    3.9100   -0.7520 H   0  0
    4.6640    3.3890    0.7170 H   0  0
   -1.2250    5.5310   -1.0060 H   0  0
    2.9590    4.9060    1.6890 H   0  0
    0.9100    5.2520    2.7030 H   0  0
   -0.3950    4.0780    2.2440 H   0  0
    0.4080    3.9770    3.8090 H   0  0
   -5.0020    2.0570   -0.3460 H   0  0
   -4.8240    1.9810   -2.1080 H   0  0
  1  2  1  0
  2  3  2  0
  2  4  1  0
  3  5  1  0
  4  6  2  0
  5  7  2  0
  5  8  1  0
  7  9  1  0
  8 10  1  0
  8 11  1  0
  8 12  1  0
 10 13  1  0
 13 14  1  0
 13 15  1  0
 13 16  1  0
 15 17  2  0
 15 18  1  0
 16 19  1  0
 18 20  1  0
 19 21  2  0
 19 22  1  0
 20 23  2  0
 20 24  1  0
 21 25  1  0
 22 26  2  0
 23 27  1  0
 24 28  2  0
 25 29  2  0
 25 30  1  0
 27 31  2  0
 27 32  1  0
 31 33  1  0
 32 34  1  0
 33 35  2  0
  6  7  1  0
 26 29  1  0
 28 31  1  0
 33 34  1  0
  3 36  1  0
  4 37  1  0
  6 38  1  0
  9 39  1  0
 10 40  1  0
 10 41  1  0
 11 42  1  0
 11 43  1  0
 11 44  1  0
 12 45  1  0
 12 46  1  0
 12 47  1  0
 14 48  1  0
 16 49  1  0
 16 50  1  0
 18 51  1  0
 21 52  1  0
 22 53  1  0
 23 54  1  0
 24 55  1  0
 26 56  1  0
 28 57  1  0
 29 58  1  0
 30 59  1  0
 30 60  1  0
 30 61  1  0
 32 62  1  0
 32 63  1  0
M  END
> <Name>
CHEMBL193523

> <IC50 nM>
52

> <Molecule_ChEMBL_ID>
CHEMBL193523

> <Smiles>
Cc1cccc(CC(O)(CC(C)(C)c2cc(F)ccc2O)C(=O)Nc2ccc3c(c2)COC3=O)c1

$$$$
CHEMBL1082780
  SciTegic08162514323D

 50 54  0  0  0  0            999 V2000
   -4.8870   -2.9670   -0.9590 S   0  0
   -5.3280   -1.6820   -1.4730 O   0  0
   -4.0390   -3.6950   -1.8890 O   0  0
   -4.0160   -2.6860    0.3770 N   0  0
   -6.2700   -3.9200   -0.6350 C   0  0
   -2.8500   -1.9730    0.2950 C   0  0
   -7.0200   -4.5450   -1.6390 C   0  0
   -6.7580   -4.1450    0.6680 C   0  0
   -2.0550   -1.7830    1.4420 C   0  0
   -2.4410   -1.4260   -0.9350 C   0  0
   -8.3170   -5.4040   -0.9530 S   0  0
   -7.9020   -4.9590    0.6390 C   0  0
   -0.8550   -1.0510    1.3610 C   0  0
   -1.2460   -0.6930   -1.0190 C   0  0
   -0.4490   -0.5040    0.1250 C   0  0
   -0.0390   -0.8710    2.5940 C   0  0
    0.7850    0.2600    0.0160 C   0  0
    0.2950    0.4510    2.7330 F   0  0
    1.1040   -1.6230    2.5000 F   0  0
   -0.7620   -1.2750    3.6860 F   0  0
    2.0410   -0.4120   -0.0160 C   0  0
    0.7440    1.6800   -0.0620 C   0  0
    3.2360    0.3420   -0.1230 C   0  0
    1.9430    2.4300   -0.1700 C   0  0
    3.1640    1.7190   -0.1970 C   0  0
    4.4900   -0.2480   -0.1580 C   0  0
    4.4710    2.0740   -0.2870 N   0  0
    5.2210    0.9180   -0.2640 N   0  0
    4.9690    3.3340   -0.3850 C   0  0
    4.4160    4.3750    0.3870 C   0  0
    6.0410    3.6060   -1.2580 C   0  0
    4.9320    5.6780    0.2850 C   0  0
    6.5550    4.9100   -1.3570 C   0  0
    6.0000    5.9450   -0.5860 C   0  0
    6.4880    7.1820   -0.6820 F   0  0
   -4.3280   -3.0330    1.2600 H   0  0
   -6.8130   -4.4980   -2.6990 H   0  0
   -6.3130   -3.7440    1.5690 H   0  0
   -2.3570   -2.1990    2.3930 H   0  0
   -3.0390   -1.5590   -1.8280 H   0  0
   -8.4590   -5.2740    1.5120 H   0  0
   -0.9490   -0.2790   -1.9750 H   0  0
    2.0820   -1.4920    0.0430 H   0  0
   -0.1990    2.2050   -0.0430 H   0  0
    1.9200    3.5080   -0.2300 H   0  0
    4.8420   -1.2700   -0.1210 H   0  0
    3.5920    4.1880    1.0630 H   0  0
    6.4810    2.8220   -1.8570 H   0  0
    4.5020    6.4730    0.8790 H   0  0
    7.3770    5.1110   -2.0270 H   0  0
  1  2  2  0
  1  3  2  0
  1  4  1  0
  1  5  1  0
  4  6  1  0
  5  7  2  0
  5  8  1  0
  6  9  2  0
  6 10  1  0
  7 11  1  0
  8 12  2  0
  9 13  1  0
 10 14  2  0
 13 15  2  0
 13 16  1  0
 15 17  1  0
 16 18  1  0
 16 19  1  0
 16 20  1  0
 17 21  2  0
 17 22  1  0
 21 23  1  0
 22 24  2  0
 23 25  2  0
 23 26  1  0
 25 27  1  0
 26 28  2  0
 27 29  1  0
 29 30  2  0
 29 31  1  0
 30 32  1  0
 31 33  2  0
 32 34  2  0
 34 35  1  0
 11 12  1  0
 14 15  1  0
 24 25  1  0
 27 28  1  0
 33 34  1  0
  4 36  1  0
  7 37  1  0
  8 38  1  0
  9 39  1  0
 10 40  1  0
 12 41  1  0
 14 42  1  0
 21 43  1  0
 22 44  1  0
 24 45  1  0
 26 46  1  0
 30 47  1  0
 31 48  1  0
 32 49  1  0
 33 50  1  0
M  END
> <Name>
CHEMBL1082780

> <IC50 nM>
12.59

> <Molecule_ChEMBL_ID>
CHEMBL1082780

> <Smiles>
O=S(=O)(Nc1ccc(-c2ccc3c(cnn3-c3ccc(F)cc3)c2)c(C(F)(F)F)c1)c1ccsc1

$$$$
CHEMBL1082837
  SciTegic08162514323D

 52 55  0  0  0  0            999 V2000
   -4.1110   -3.4510    0.5250 S   0  0
   -4.7690   -3.1110    1.7750 O   0  0
   -3.7850   -4.8610    0.4160 O   0  0
   -5.2710   -3.1270   -0.7300 N   0  0
   -2.6460   -2.5450    0.4200 C   0  0
   -5.6870   -1.7520   -0.9360 C   0  0
   -2.0430   -2.0550    1.5880 C   0  0
   -2.0600   -2.3010   -0.8340 C   0  0
   -6.6020   -1.6460   -2.1580 C   0  0
   -6.3320   -1.1910    0.3320 C   0  0
   -0.8480   -1.3140    1.5100 C   0  0
   -0.8690   -1.5620   -0.9180 C   0  0
   -0.2580   -1.0660    0.2500 C   0  0
   -0.2300   -0.8070    2.7660 C   0  0
    0.9810   -0.3050    0.1390 C   0  0
    1.0570   -1.2710    2.8630 F   0  0
   -0.9570   -1.2440    3.8420 F   0  0
   -0.2210    0.5640    2.7480 F   0  0
    2.2350   -0.9770    0.1070 C   0  0
    0.9400    1.1170    0.0610 C   0  0
    3.4320   -0.2210    0.0000 C   0  0
    2.1370    1.8670   -0.0470 C   0  0
    3.3580    1.1560   -0.0720 C   0  0
    4.6840   -0.8110   -0.0350 C   0  0
    4.6660    1.5120   -0.1640 N   0  0
    5.4140    0.3560   -0.1410 N   0  0
    5.1640    2.7720   -0.2620 C   0  0
    6.2150    3.0490   -1.1560 C   0  0
    4.6290    3.8050    0.5330 C   0  0
    6.7290    4.3540   -1.2560 C   0  0
    5.1470    5.1090    0.4320 C   0  0
    6.1960    5.3830   -0.4630 C   0  0
    6.6820    6.6170   -0.5590 F   0  0
   -4.9180   -3.4940   -1.6270 H   0  0
   -4.7300   -1.2680   -1.1290 H   0  0
   -2.5000   -2.2460    2.5490 H   0  0
   -2.5270   -2.6800   -1.7320 H   0  0
   -6.1270   -2.0370   -3.0570 H   0  0
   -6.8730   -0.6070   -2.3480 H   0  0
   -7.5230   -2.2050   -1.9980 H   0  0
   -5.5820   -1.0410    1.1110 H   0  0
   -6.8260   -0.2420    0.1270 H   0  0
   -7.0820   -1.8810    0.7210 H   0  0
   -0.4320   -1.3830   -1.8910 H   0  0
    2.2760   -2.0550    0.1660 H   0  0
   -0.0060    1.6430    0.0820 H   0  0
    2.1130    2.9450   -0.1050 H   0  0
    5.0350   -1.8320    0.0040 H   0  0
    6.6390    2.2700   -1.7750 H   0  0
    3.8220    3.6130    1.2270 H   0  0
    7.5350    4.5610   -1.9450 H   0  0
    4.7330    5.8970    1.0430 H   0  0
  1  2  2  0
  1  3  2  0
  1  4  1  0
  1  5  1  0
  4  6  1  0
  5  7  2  0
  5  8  1  0
  6  9  1  0
  6 10  1  0
  7 11  1  0
  8 12  2  0
 11 13  2  0
 11 14  1  0
 13 15  1  0
 14 16  1  0
 14 17  1  0
 14 18  1  0
 15 19  2  0
 15 20  1  0
 19 21  1  0
 20 22  2  0
 21 23  2  0
 21 24  1  0
 23 25  1  0
 24 26  2  0
 25 27  1  0
 27 28  2  0
 27 29  1  0
 28 30  1  0
 29 31  2  0
 30 32  2  0
 32 33  1  0
 12 13  1  0
 22 23  1  0
 25 26  1  0
 31 32  1  0
  4 34  1  0
  6 35  1  0
  7 36  1  0
  8 37  1  0
  9 38  1  0
  9 39  1  0
  9 40  1  0
 10 41  1  0
 10 42  1  0
 10 43  1  0
 12 44  1  0
 19 45  1  0
 20 46  1  0
 22 47  1  0
 24 48  1  0
 28 49  1  0
 29 50  1  0
 30 51  1  0
 31 52  1  0
M  END
> <Name>
CHEMBL1082837

> <IC50 nM>
12.59

> <Molecule_ChEMBL_ID>
CHEMBL1082837

> <Smiles>
CC(C)NS(=O)(=O)c1ccc(-c2ccc3c(cnn3-c3ccc(F)cc3)c2)c(C(F)(F)F)c1

$$$$
CHEMBL1086086
  SciTegic08162514323D

 50 53  0  0  0  0            999 V2000
   -4.7230   -2.9220    0.0490 S   0  0
   -4.5180   -4.2380   -0.5270 O   0  0
   -5.7850   -2.1720   -0.5960 O   0  0
   -5.2520   -3.1930    1.6850 N   0  0
   -3.2540   -2.0270   -0.1060 C   0  0
   -4.3770   -3.9430    2.5700 C   0  0
   -2.5330   -2.0700   -1.3110 C   0  0
   -2.7850   -1.2580    0.9710 C   0  0
   -4.8460   -3.8160    4.0200 C   0  0
   -1.3380   -1.3440   -1.4430 C   0  0
   -1.5900   -0.5310    0.8440 C   0  0
   -6.1250   -4.3980    4.1230 O   0  0
   -0.8610   -0.5680   -0.3610 C   0  0
   -0.5940   -1.4080   -2.7340 C   0  0
    0.3730    0.1930   -0.4730 C   0  0
    0.5080   -2.2110   -2.5880 F   0  0
   -0.1950   -0.1460   -3.0960 F   0  0
   -1.4100   -1.9240   -3.7050 F   0  0
    1.6270   -0.4780   -0.5020 C   0  0
    0.3320    1.6130   -0.5510 C   0  0
    2.8240    0.2750   -0.6110 C   0  0
    1.5290    2.3630   -0.6580 C   0  0
    2.7520    1.6540   -0.6840 C   0  0
    4.0780   -0.3120   -0.6470 C   0  0
    4.0590    2.0080   -0.7750 N   0  0
    4.8090    0.8520   -0.7500 N   0  0
    4.5570    3.2680   -0.8710 C   0  0
    5.5470    3.5650   -1.8280 C   0  0
    4.0860    4.2830   -0.0160 C   0  0
    6.0610    4.8690   -1.9300 C   0  0
    4.6020    5.5860   -0.1170 C   0  0
    5.5880    5.8810   -1.0740 C   0  0
    6.0760    7.1150   -1.1680 F   0  0
   -5.4630   -2.2890    2.1310 H   0  0
   -4.3570   -4.9880    2.2620 H   0  0
   -3.3540   -3.5820    2.4610 H   0  0
   -2.9040   -2.6640   -2.1330 H   0  0
   -3.3400   -1.2270    1.8980 H   0  0
   -4.1740   -4.3520    4.6890 H   0  0
   -4.9260   -2.7680    4.3090 H   0  0
   -1.2400    0.0570    1.6820 H   0  0
   -6.7580   -3.7660    3.7520 H   0  0
    1.6700   -1.5590   -0.4430 H   0  0
   -0.6110    2.1390   -0.5290 H   0  0
    1.5060    3.4410   -0.7170 H   0  0
    4.4280   -1.3360   -0.6080 H   0  0
    5.9220    2.8010   -2.4960 H   0  0
    3.3260    4.0760    0.7260 H   0  0
    6.8190    5.0920   -2.6640 H   0  0
    4.2340    6.3600    0.5430 H   0  0
  1  2  2  0
  1  3  2  0
  1  4  1  0
  1  5  1  0
  4  6  1  0
  5  7  2  0
  5  8  1  0
  6  9  1  0
  7 10  1  0
  8 11  2  0
  9 12  1  0
 10 13  2  0
 10 14  1  0
 13 15  1  0
 14 16  1  0
 14 17  1  0
 14 18  1  0
 15 19  2  0
 15 20  1  0
 19 21  1  0
 20 22  2  0
 21 23  2  0
 21 24  1  0
 23 25  1  0
 24 26  2  0
 25 27  1  0
 27 28  2  0
 27 29  1  0
 28 30  1  0
 29 31  2  0
 30 32  2  0
 32 33  1  0
 11 13  1  0
 22 23  1  0
 25 26  1  0
 31 32  1  0
  4 34  1  0
  6 35  1  0
  6 36  1  0
  7 37  1  0
  8 38  1  0
  9 39  1  0
  9 40  1  0
 11 41  1  0
 12 42  1  0
 19 43  1  0
 20 44  1  0
 22 45  1  0
 24 46  1  0
 28 47  1  0
 29 48  1  0
 30 49  1  0
 31 50  1  0
M  END
> <Name>
CHEMBL1086086

> <IC50 nM>
15.85

> <Molecule_ChEMBL_ID>
CHEMBL1086086

> <Smiles>
O=S(=O)(NCCO)c1ccc(-c2ccc3c(cnn3-c3ccc(F)cc3)c2)c(C(F)(F)F)c1

$$$$
CHEMBL1086261
  SciTegic08162514323D

 65 69  0  0  0  0            999 V2000
   -3.5140   -1.1230    0.6390 S   0  0
   -4.3340   -0.8730   -0.5330 O   0  0
   -4.1580   -0.7400    1.8810 O   0  0
   -3.2370   -2.7190    0.7050 N   0  0
   -2.0530   -0.2190    0.4810 C   0  0
   -4.1080   -3.5370    1.3730 C   0  0
   -2.0470   -3.2850    0.0530 C   0  0
   -1.6560    0.2540   -0.7790 C   0  0
   -1.2660    0.0450    1.6130 C   0  0
   -5.4830   -3.2350    1.3990 C   0  0
   -3.6310   -4.6860    2.0350 C   0  0
   -2.4180   -3.9630   -1.2680 C   0  0
   -0.4650    0.9920   -0.9140 C   0  0
   -0.0760    0.7830    1.4860 C   0  0
   -6.3770   -4.0760    2.0820 C   0  0
   -4.5280   -5.5260    2.7170 C   0  0
   -3.0310   -5.3480   -1.0680 C   0  0
    0.3280    1.2600    0.2230 C   0  0
   -0.0700    1.4800   -2.2660 C   0  0
   -5.8990   -5.2210    2.7420 C   0  0
   -3.2110   -6.1100   -2.3830 C   0  0
    1.5620    2.0210    0.1130 C   0  0
   -0.1950    2.8460   -2.3140 F   0  0
   -0.8810    0.9140   -3.2130 F   0  0
    1.2340    1.1330   -2.5140 F   0  0
    2.8160    1.3500    0.0820 C   0  0
    1.5210    3.4410    0.0350 C   0  0
    4.0140    2.1030   -0.0250 C   0  0
    2.7210    4.1910   -0.0720 C   0  0
    3.9410    3.4800   -0.1000 C   0  0
    5.2680    1.5160   -0.0600 C   0  0
    5.2480    3.8360   -0.1890 N   0  0
    5.9980    2.6800   -0.1660 N   0  0
    5.7460    5.0960   -0.2870 C   0  0
    6.7910    5.3750   -1.1890 C   0  0
    5.2210    6.1270    0.5140 C   0  0
    7.3050    6.6800   -1.2890 C   0  0
    5.7360    7.4320    0.4120 C   0  0
    6.7770    7.7090   -0.4880 C   0  0
    7.2660    8.9430   -0.5840 F   0  0
   -1.3170   -2.4940   -0.1130 H   0  0
   -1.5700   -3.9960    0.7290 H   0  0
   -2.2680    0.0470   -1.6460 H   0  0
   -1.5720   -0.3180    2.5840 H   0  0
   -5.8670   -2.3580    0.8970 H   0  0
   -2.5800   -4.9380    2.0260 H   0  0
   -3.0840   -3.3260   -1.8520 H   0  0
   -1.5550   -4.0140   -1.9300 H   0  0
    0.5170    0.9760    2.3670 H   0  0
   -7.4300   -3.8420    2.1020 H   0  0
   -4.1620   -6.4060    3.2250 H   0  0
   -2.4420   -5.9340   -0.3630 H   0  0
   -3.9770   -5.2780   -0.5310 H   0  0
   -6.5860   -5.8670    3.2680 H   0  0
   -3.8730   -5.5650   -3.0550 H   0  0
   -2.2500   -6.2600   -2.8750 H   0  0
   -3.6510   -7.0900   -2.2030 H   0  0
    2.8590    0.2690    0.1410 H   0  0
    0.5780    3.9670    0.0550 H   0  0
    2.6970    5.2690   -0.1330 H   0  0
    5.6190    0.4920   -0.0230 H   0  0
    7.2090    4.5980   -1.8140 H   0  0
    4.4180    5.9360    1.2130 H   0  0
    8.1050    6.8890   -1.9820 H   0  0
    5.3280    8.2190    1.0310 H   0  0
  1  2  2  0
  1  3  2  0
  1  4  1  0
  1  5  1  0
  4  6  1  0
  4  7  1  0
  5  8  2  0
  5  9  1  0
  6 10  2  0
  6 11  1  0
  7 12  1  0
  8 13  1  0
  9 14  2  0
 10 15  1  0
 11 16  2  0
 12 17  1  0
 13 18  2  0
 13 19  1  0
 15 20  2  0
 17 21  1  0
 18 22  1  0
 19 23  1  0
 19 24  1  0
 19 25  1  0
 22 26  2  0
 22 27  1  0
 26 28  1  0
 27 29  2  0
 28 30  2  0
 28 31  1  0
 30 32  1  0
 31 33  2  0
 32 34  1  0
 34 35  2  0
 34 36  1  0
 35 37  1  0
 36 38  2  0
 37 39  2  0
 39 40  1  0
 14 18  1  0
 16 20  1  0
 29 30  1  0
 32 33  1  0
 38 39  1  0
  7 41  1  0
  7 42  1  0
  8 43  1  0
  9 44  1  0
 10 45  1  0
 11 46  1  0
 12 47  1  0
 12 48  1  0
 14 49  1  0
 15 50  1  0
 16 51  1  0
 17 52  1  0
 17 53  1  0
 20 54  1  0
 21 55  1  0
 21 56  1  0
 21 57  1  0
 26 58  1  0
 27 59  1  0
 29 60  1  0
 31 61  1  0
 35 62  1  0
 36 63  1  0
 37 64  1  0
 38 65  1  0
M  END
> <Name>
CHEMBL1086261

> <IC50 nM>
25.12

> <Molecule_ChEMBL_ID>
CHEMBL1086261

> <Smiles>
CCCCN(c1ccccc1)S(=O)(=O)c1ccc(-c2ccc3c(cnn3-c3ccc(F)cc3)c2)c(C(F)(F)F)c1

$$$$
CHEMBL5284597
  SciTegic08162514323D

 53 56  0  0  0  0            999 V2000
    6.0370   -3.4220   -1.8050 Cl  0  0
    5.0120   -3.0660   -0.4730 C   0  0
    5.1310   -3.7600    0.7520 C   0  0
    4.0350   -2.0610   -0.6110 C   0  0
    4.2750   -3.4400    1.8240 C   0  0
    6.1470   -4.8320    0.9400 C   0  0
    3.1860   -1.7500    0.4630 C   0  0
    3.3030   -2.4360    1.6840 C   0  0
    1.9900   -0.5160    0.2790 S   0  0
    2.5060   -2.1430    2.6940 O   0  0
    2.2130    0.1480   -0.9940 O   0  0
    2.0820    0.3830    1.4160 O   0  0
    0.4880   -1.1210    0.2560 N   0  0
    2.6040   -2.9340    3.8690 C   0  0
   -0.5630   -0.3010    0.1270 C   0  0
   -1.8790   -0.8200    0.1130 C   0  0
   -0.3710    1.0940    0.0000 C   0  0
   -3.0000    0.0390   -0.0230 C   0  0
   -1.4810    1.9590   -0.1370 C   0  0
   -2.8130    1.4530   -0.1520 C   0  0
   -4.3590   -0.5630   -0.0290 C   0  0
   -3.8910    2.2930   -0.2850 N   0  0
   -5.3710    0.3240   -0.7620 C   0  0
   -3.7460    3.6500   -0.4470 C   0  0
   -5.2870    1.7680   -0.2520 C   0  0
   -4.4380    4.4180    0.1800 O   0  0
   -2.7190    4.1500   -1.4060 C   0  0
   -2.0880    5.3280   -1.1130 N   0  0
   -2.4670    3.4040   -2.5230 N   0  0
   -1.1480    5.7910   -1.9880 C   0  0
   -1.5270    3.8590   -3.4040 C   0  0
   -0.8420    5.0660   -3.1580 C   0  0
    3.9300   -1.5220   -1.5410 H   0  0
    4.3650   -3.9670    2.7620 H   0  0
    6.1390   -5.2910    1.9280 H   0  0
    7.1430   -4.4200    0.7720 H   0  0
    5.9840   -5.6190    0.2030 H   0  0
    0.3480   -2.1070    0.3380 H   0  0
    1.9020   -2.5370    4.6040 H   0  0
    2.4710   -3.9790    3.5900 H   0  0
    3.6090   -2.8200    4.2740 H   0  0
   -2.0450   -1.8850    0.2110 H   0  0
    0.6230    1.5180    0.0060 H   0  0
   -1.2750    3.0180   -0.2280 H   0  0
   -4.3440   -1.5510   -0.4920 H   0  0
   -4.6760   -0.7030    1.0060 H   0  0
   -5.1740    0.3030   -1.8360 H   0  0
   -6.3810   -0.0640   -0.6270 H   0  0
   -5.9430    2.4040   -0.8500 H   0  0
   -5.6510    1.8200    0.7760 H   0  0
   -0.6350    6.7190   -1.7810 H   0  0
   -1.3090    3.2890   -4.2950 H   0  0
   -0.1000    5.4300   -3.8530 H   0  0
  1  2  1  0
  2  3  2  0
  2  4  1  0
  3  5  1  0
  3  6  1  0
  4  7  2  0
  5  8  2  0
  7  9  1  0
  8 10  1  0
  9 11  2  0
  9 12  2  0
  9 13  1  0
 10 14  1  0
 13 15  1  0
 15 16  2  0
 15 17  1  0
 16 18  1  0
 17 19  2  0
 18 20  2  0
 18 21  1  0
 20 22  1  0
 21 23  1  0
 22 24  1  0
 22 25  1  0
 24 26  2  0
 24 27  1  0
 27 28  2  0
 27 29  1  0
 28 30  1  0
 29 31  2  0
 30 32  2  0
  7  8  1  0
 19 20  1  0
 23 25  1  0
 31 32  1  0
  4 33  1  0
  5 34  1  0
  6 35  1  0
  6 36  1  0
  6 37  1  0
 13 38  1  0
 14 39  1  0
 14 40  1  0
 14 41  1  0
 16 42  1  0
 17 43  1  0
 19 44  1  0
 21 45  1  0
 21 46  1  0
 23 47  1  0
 23 48  1  0
 25 49  1  0
 25 50  1  0
 30 51  1  0
 31 52  1  0
 32 53  1  0
M  END
> <Name>
CHEMBL5284597

> <IC50 nM>
50000

> <Molecule_ChEMBL_ID>
CHEMBL5284597

> <Smiles>
COc1cc(C)c(Cl)cc1S(=O)(=O)Nc1ccc2c(c1)CCCN2C(=O)c1ncccn1

$$$$
CHEMBL309134
  SciTegic08162514323D

 54 56  0  0  0  0            999 V2000
   -2.1680   -2.8540   -3.2950 S   0  0
   -1.5490   -3.8320   -4.1720 O   0  0
   -2.9300   -3.4550   -2.2150 O   0  0
   -0.9810   -1.9770   -2.6270 N   0  0
   -3.2600   -1.8200   -4.2660 C   0  0
   -1.1970   -1.3220   -1.4390 C   0  0
   -0.1190   -0.9160   -0.6170 C   0  0
   -2.5220   -1.0530   -1.0450 C   0  0
   -0.3830   -0.2420    0.6000 C   0  0
    1.2910   -1.1970   -1.0310 C   0  0
   -2.7750   -0.3850    0.1620 C   0  0
    0.6370    0.1660    1.4220 N   0  0
   -1.7110    0.0190    0.9820 C   0  0
    1.6170    1.1660    0.9750 C   0  0
    0.7580   -0.3950    2.7750 C   0  0
    0.9530    2.3650    0.4020 C   0  0
    1.5470   -1.6540    2.7750 C   0  0
    0.8200    2.4980   -0.9920 C   0  0
    0.4610    3.3710    1.2520 C   0  0
    0.8910   -2.8990    2.7750 C   0  0
    2.9530   -1.6060    2.7750 C   0  0
    0.1910    3.6330   -1.5350 C   0  0
   -0.1680    4.5060    0.7090 C   0  0
    1.6370   -4.0900    2.7750 C   0  0
    3.6990   -2.7970    2.7750 C   0  0
   -0.3030    4.6390   -0.6840 C   0  0
    3.0410   -4.0370    2.7750 C   0  0
   -0.9690    5.8440   -1.2600 C   0  0
   -1.0940    5.9750   -2.4550 O   0  0
   -1.3980    6.7340   -0.3690 O   0  0
   -0.0920   -1.9140   -3.0780 H   0  0
   -4.0920   -2.3540   -4.7230 H   0  0
   -2.6910   -1.3420   -5.0630 H   0  0
   -3.6720   -1.0330   -3.6330 H   0  0
   -3.3580   -1.3560   -1.6600 H   0  0
    1.6540   -0.3830   -1.6580 H   0  0
    1.9060   -1.3560   -0.1450 H   0  0
    1.3200   -2.1110   -1.6230 H   0  0
   -3.7930   -0.1820    0.4610 H   0  0
   -1.9320    0.5330    1.9080 H   0  0
    2.2680    0.7170    0.2250 H   0  0
    2.2380    1.4630    1.8200 H   0  0
   -0.2360   -0.5900    3.1740 H   0  0
    1.2400    0.3360    3.4260 H   0  0
    1.1970    1.7280   -1.6500 H   0  0
    0.5610    3.2750    2.3240 H   0  0
   -0.1890   -2.9440    2.7750 H   0  0
    3.4650   -0.6540    2.7750 H   0  0
    0.0940    3.7270   -2.6060 H   0  0
   -0.5430    5.2730    1.3710 H   0  0
    1.1310   -5.0430    2.7750 H   0  0
    4.7790   -2.7580    2.7750 H   0  0
    3.6150   -4.9530    2.7750 H   0  0
   -1.8400    7.5370   -0.6780 H   0  0
  1  2  2  0
  1  3  2  0
  1  4  1  0
  1  5  1  0
  4  6  1  0
  6  7  2  0
  6  8  1  0
  7  9  1  0
  7 10  1  0
  8 11  2  0
  9 12  1  0
  9 13  2  0
 12 14  1  0
 12 15  1  0
 14 16  1  0
 15 17  1  0
 16 18  2  0
 16 19  1  0
 17 20  2  0
 17 21  1  0
 18 22  1  0
 19 23  2  0
 20 24  1  0
 21 25  2  0
 22 26  2  0
 24 27  2  0
 26 28  1  0
 28 29  2  0
 28 30  1  0
 11 13  1  0
 23 26  1  0
 25 27  1  0
  4 31  1  0
  5 32  1  0
  5 33  1  0
  5 34  1  0
  8 35  1  0
 10 36  1  0
 10 37  1  0
 10 38  1  0
 11 39  1  0
 13 40  1  0
 14 41  1  0
 14 42  1  0
 15 43  1  0
 15 44  1  0
 18 45  1  0
 19 46  1  0
 20 47  1  0
 21 48  1  0
 22 49  1  0
 23 50  1  0
 24 51  1  0
 25 52  1  0
 27 53  1  0
 30 54  1  0
M  END
> <Name>
CHEMBL309134

> <IC50 nM>
1000

> <Molecule_ChEMBL_ID>
CHEMBL309134

> <Smiles>
Cc1c(NS(C)(=O)=O)cccc1N(Cc1ccccc1)Cc1ccc(C(=O)O)cc1

$$$$
CHEMBL208779
  SciTegic08162514323D

 61 64  0  0  1  0            999 V2000
    3.0330    2.3420    1.0430 F   0  0
    1.8950    1.8980    1.6640 C   0  0
    2.2230    1.3280    2.8670 F   0  0
    1.0470    2.9550    1.8770 F   0  0
    1.2030    0.8610    0.7790 C   0  0  3  0  0  0
    2.0670    0.5450   -0.2890 O   0  0
   -0.1110    1.3530    0.2360 C   0  0
    0.8790   -0.4320    1.5290 C   0  0
   -1.1560    0.8500    0.5760 O   0  0
   -0.1030    2.3910   -0.6560 N   0  0
    0.8690   -1.6640    0.6110 C   0  0  3  0  0  0
   -1.2600    2.8520   -1.1560 C   0  0
    2.1800   -2.3910    0.6820 C   0  0
   -0.3220   -2.5530    1.0350 C   0  0
    0.6560   -1.1920   -0.8320 C   0  0
   -2.1330    3.6230   -0.3480 C   0  0
   -1.6170    2.5700   -2.5020 C   0  0
    2.2480   -3.8190    0.7620 C   0  0
    3.3930   -1.6450    0.6500 C   0  0
   -0.2540   -3.9320    0.3810 C   0  0
   -0.3570   -2.0490   -1.5920 C   0  0
   -3.3530    4.1070   -0.8830 C   0  0
   -2.8360    3.0550   -3.0390 C   0  0
    3.5160   -4.4530    0.8030 C   0  0
    1.0220   -4.6620    0.8130 C   0  0
    4.6470   -2.2950    0.6990 C   0  0
   -3.6970    3.8220   -2.2210 C   0  0
   -4.3010    4.9200   -0.0660 C   0  0
    3.5980   -5.8440    0.8750 N   0  3
    4.7090   -3.7010    0.7720 C   0  0
   -4.9920    4.3590   -2.7250 C   0  0
   -5.4040    5.3460   -0.5820 N   0  0
   -3.9980    5.2640    1.3710 C   0  0
    4.2330   -6.4040    0.0120 O   0  0
    3.0160   -6.3890    1.8130 O   0  5
   -5.3690    4.1660   -3.8590 O   0  0
   -5.8320    5.0940   -1.9570 O   0  0
    2.2810    1.3790   -0.7380 H   0  0
    1.5670   -0.5760    2.3630 H   0  0
   -0.0680   -0.3420    2.0630 H   0  0
    0.7620    2.8050   -0.9340 H   0  0
   -1.2660   -2.0670    0.7810 H   0  0
   -0.3300   -2.6780    2.1190 H   0  0
    0.3650   -0.1410   -0.8550 H   0  0
    1.6060   -1.1510   -1.3690 H   0  0
   -1.8710    3.8440    0.6780 H   0  0
   -0.9670    1.9840   -3.1370 H   0  0
    3.3690   -0.5670    0.5900 H   0  0
   -0.2770   -3.8300   -0.7050 H   0  0
   -1.1290   -4.5240    0.6540 H   0  0
   -0.8240   -1.4750   -2.3910 H   0  0
    0.1270   -2.9280   -2.0190 H   0  0
   -1.1440   -2.3950   -0.9240 H   0  0
   -3.0960    2.8340   -4.0640 H   0  0
    0.9020   -5.0180    1.8380 H   0  0
    1.1490   -5.5470    0.1900 H   0  0
    5.5590   -1.7150    0.6800 H   0  0
    5.6660   -4.2010    0.8050 H   0  0
   -4.7790    5.8520    1.8520 H   0  0
   -3.0700    5.8300    1.4280 H   0  0
   -3.8670    4.3500    1.9510 H   0  0
  1  2  1  0
  2  3  1  0
  2  4  1  0
  2  5  1  0
  5  6  1  0
  5  7  1  0
  5  8  1  0
  7  9  2  0
  7 10  1  0
  8 11  1  0
 10 12  1  0
 11 13  1  0
 11 14  1  0
 11 15  1  0
 12 16  2  0
 12 17  1  0
 13 18  2  0
 13 19  1  0
 14 20  1  0
 15 21  1  0
 16 22  1  0
 17 23  2  0
 18 24  1  0
 18 25  1  0
 19 26  2  0
 22 27  2  0
 22 28  1  0
 24 29  1  0
 24 30  2  0
 27 31  1  0
 28 32  2  0
 28 33  1  0
 29 34  2  0
 29 35  1  0
 31 36  2  0
 31 37  1  0
 20 25  1  0
 23 27  1  0
 26 30  1  0
 32 37  1  0
  6 38  1  0
  8 39  1  0
  8 40  1  0
 10 41  1  0
 14 42  1  0
 14 43  1  0
 15 44  1  0
 15 45  1  0
 16 46  1  0
 17 47  1  0
 19 48  1  0
 20 49  1  0
 20 50  1  0
 21 51  1  0
 21 52  1  0
 21 53  1  0
 23 54  1  0
 25 55  1  0
 25 56  1  0
 26 57  1  0
 30 58  1  0
 33 59  1  0
 33 60  1  0
 33 61  1  0
M  CHG  2  29   1  35  -1
M  END
> <Name>
CHEMBL208779

> <IC50 nM>
5.01

> <Molecule_ChEMBL_ID>
CHEMBL208779

> <Smiles>
CCC1(CC(O)(C(=O)Nc2ccc3c(=O)onc(C)c3c2)C(F)(F)F)CCCc2c([N+](=O)[O-])cccc21

$$$$
CHEMBL195021
  SciTegic08162514323D

 49 51  0  0  1  0            999 V2000
   -5.1970    6.2600    0.5020 O   0  0
   -5.1580    5.0530    0.5570 C   0  0
   -6.2030    4.1930    0.4860 O   0  0
   -3.9410    4.2810    0.7130 C   0  0
   -5.7380    2.8130    0.5940 C   0  0
   -4.2360    2.9320    0.7400 C   0  0
   -2.6150    4.7620    0.8240 C   0  0
   -3.1780    2.0000    0.8890 C   0  0
   -1.5570    3.8320    0.9690 C   0  0
   -1.8320    2.4410    1.0020 C   0  0
   -0.8360    1.5550    1.1410 N   0  0
   -0.8300    0.4120    0.3910 C   0  0
   -1.7190    0.1950   -0.3980 O   0  0
    0.3030   -0.5620    0.5700 C   0  0  1  0  0  0
    0.1600   -0.9390    1.9200 O   0  0
    0.1390   -1.8120   -0.2950 C   0  0
    1.6720    0.0960    0.4000 C   0  0
    1.3380   -2.7580   -0.2010 C   0  0
    2.5140   -2.2230   -0.9370 C   0  0
    1.6910   -3.1210    1.2400 C   0  0
    1.1910   -3.9860   -1.1020 C   0  0
    2.3500   -1.6600   -2.2150 C   0  0
    3.7930   -2.2770   -0.3530 C   0  0
    3.4610   -1.1540   -2.9100 C   0  0
    4.9040   -1.7710   -1.0490 C   0  0
    4.7380   -1.2090   -2.3260 C   0  0
   -6.1880    2.3460    1.4590 H   0  0
   -6.0080    2.2720   -0.3030 H   0  0
   -2.4080    5.8220    0.8010 H   0  0
   -3.4160    0.9450    0.9120 H   0  0
   -0.5430    4.2010    1.0530 H   0  0
   -0.0980    1.7290    1.7910 H   0  0
   -0.6970   -1.3870    2.0040 H   0  0
   -0.7850   -2.3360   -0.0450 H   0  0
   -0.0590   -1.5410   -1.3320 H   0  0
    1.7250    1.0610    0.9040 H   0  0
    1.8930    0.2580   -0.6560 H   0  0
    2.4590   -0.5370    0.8110 H   0  0
    2.3890   -3.9570    1.2890 H   0  0
    0.7970   -3.3980    1.7990 H   0  0
    2.1520   -2.2730    1.7480 H   0  0
    2.1230   -4.5510   -1.1330 H   0  0
    0.3950   -4.6350   -0.7400 H   0  0
    0.9450   -3.6890   -2.1210 H   0  0
    1.3690   -1.6130   -2.6680 H   0  0
    3.9260   -2.7090    0.6270 H   0  0
    3.3340   -0.7230   -3.8910 H   0  0
    5.8870   -1.8140   -0.6020 H   0  0
    5.5940   -0.8200   -2.8590 H   0  0
  1  2  2  0
  2  3  1  0
  2  4  1  0
  3  5  1  0
  4  6  2  0
  4  7  1  0
  6  8  1  0
  7  9  2  0
  8 10  2  0
 10 11  1  0
 11 12  1  0
 12 13  2  0
 12 14  1  0
 14 15  1  0
 14 16  1  0
 14 17  1  0
 16 18  1  0
 18 19  1  0
 18 20  1  0
 18 21  1  0
 19 22  2  0
 19 23  1  0
 22 24  1  0
 23 25  2  0
 24 26  2  0
  5  6  1  0
  9 10  1  0
 25 26  1  0
  5 27  1  0
  5 28  1  0
  7 29  1  0
  8 30  1  0
  9 31  1  0
 11 32  1  0
 15 33  1  0
 16 34  1  0
 16 35  1  0
 17 36  1  0
 17 37  1  0
 17 38  1  0
 20 39  1  0
 20 40  1  0
 20 41  1  0
 21 42  1  0
 21 43  1  0
 21 44  1  0
 22 45  1  0
 23 46  1  0
 24 47  1  0
 25 48  1  0
 26 49  1  0
M  END
> <Name>
CHEMBL195021

> <IC50 nM>
370

> <Molecule_ChEMBL_ID>
CHEMBL195021

> <Smiles>
CC(O)(CC(C)(C)c1ccccc1)C(=O)Nc1ccc2c(c1)COC2=O

$$$$
CHEMBL372181
  SciTegic08162514323D

 56 59  0  0  1  0            999 V2000
   -4.4690    6.4730   -0.9140 O   0  0
   -4.4300    5.2660   -0.8610 C   0  0
   -5.4770    4.4060   -0.9300 O   0  0
   -3.2130    4.4940   -0.7050 C   0  0
   -5.0100    3.0250   -0.8240 C   0  0
   -3.5080    3.1450   -0.6760 C   0  0
   -1.8870    4.9730   -0.5940 C   0  0
   -2.4490    2.2130   -0.5290 C   0  0
   -0.8300    4.0450   -0.4490 C   0  0
   -1.1040    2.6540   -0.4140 C   0  0
   -0.1070    1.7680   -0.2770 N   0  0
   -0.2720    0.6760    0.5290 C   0  0
   -1.3110    0.5040    1.1210 O   0  0
    0.8650   -0.3010    0.6620 C   0  0  2  0  0  0
    0.4570   -1.3930    1.4550 O   0  0
    2.0720    0.3240    1.2640 C   0  0
    1.1430   -0.8130   -0.7520 C   0  0
    3.3140   -0.3320    1.1930 C   0  0
    1.9750    1.5720    1.9040 C   0  0
    0.1800   -1.9220   -1.1780 C   0  0
    4.4570    0.2600    1.7620 C   0  0
    3.1150    2.1640    2.4730 C   0  0
    0.4670   -3.1970   -0.4710 C   0  0
   -1.2870   -1.5160   -1.0310 C   0  0
    0.5020   -2.4840   -2.5630 C   0  0
    4.3570    1.5080    2.4020 C   0  0
   -0.5900   -3.9750    0.0390 C   0  0
    1.7970   -3.6310   -0.3130 C   0  0
   -0.3160   -5.1820    0.7050 C   0  0
    2.0680   -4.8360    0.3550 C   0  0
    1.0120   -5.6110    0.8650 C   0  0
   -5.4590    2.5590    0.0410 H   0  0
   -5.2790    2.4820   -1.7190 H   0  0
   -1.6820    6.0330   -0.6170 H   0  0
   -2.6880    1.1580   -0.5060 H   0  0
    0.1840    4.4140   -0.3650 H   0  0
    0.7540    1.9040   -0.7640 H   0  0
    0.2810   -1.0490    2.3460 H   0  0
    1.1270    0.0080   -1.4690 H   0  0
    2.1780   -1.1450   -0.8460 H   0  0
    3.3980   -1.2910    0.7030 H   0  0
    1.0230    2.0820    1.9610 H   0  0
    5.4100   -0.2440    1.7090 H   0  0
    3.0390    3.1230    2.9650 H   0  0
   -1.9510   -2.1950   -1.5650 H   0  0
   -1.4510   -0.5120   -1.4240 H   0  0
   -1.5840   -1.5160    0.0180 H   0  0
   -0.0940   -3.3750   -2.7640 H   0  0
    0.3030   -1.7400   -3.3340 H   0  0
    1.5530   -2.7640   -2.6290 H   0  0
    5.2340    1.9610    2.8400 H   0  0
   -1.6110   -3.6480   -0.0800 H   0  0
    2.6130   -3.0390   -0.7010 H   0  0
   -1.1270   -5.7770    1.0980 H   0  0
    3.0880   -5.1680    0.4770 H   0  0
    1.2210   -6.5390    1.3770 H   0  0
  1  2  2  0
  2  3  1  0
  2  4  1  0
  3  5  1  0
  4  6  2  0
  4  7  1  0
  6  8  1  0
  7  9  2  0
  8 10  2  0
 10 11  1  0
 11 12  1  0
 12 13  2  0
 12 14  1  0
 14 15  1  0
 14 16  1  0
 14 17  1  0
 16 18  2  0
 16 19  1  0
 17 20  1  0
 18 21  1  0
 19 22  2  0
 20 23  1  0
 20 24  1  0
 20 25  1  0
 21 26  2  0
 23 27  2  0
 23 28  1  0
 27 29  1  0
 28 30  2  0
 29 31  2  0
  5  6  1  0
  9 10  1  0
 22 26  1  0
 30 31  1  0
  5 32  1  0
  5 33  1  0
  7 34  1  0
  8 35  1  0
  9 36  1  0
 11 37  1  0
 15 38  1  0
 17 39  1  0
 17 40  1  0
 18 41  1  0
 19 42  1  0
 21 43  1  0
 22 44  1  0
 24 45  1  0
 24 46  1  0
 24 47  1  0
 25 48  1  0
 25 49  1  0
 25 50  1  0
 26 51  1  0
 27 52  1  0
 28 53  1  0
 29 54  1  0
 30 55  1  0
 31 56  1  0
M  END
> <Name>
CHEMBL372181

> <IC50 nM>
460

> <Molecule_ChEMBL_ID>
CHEMBL372181

> <Smiles>
CC(C)(CC(O)(C(=O)Nc1ccc2c(c1)COC2=O)c1ccccc1)c1ccccc1

$$$$
CHEMBL196051
  SciTegic08162514323D

 60 63  0  0  1  0            999 V2000
    1.3220   -3.8870   -5.2130 F   0  0
    1.8070   -2.7110   -4.8200 C   0  0
    1.6780   -2.3070   -3.4800 C   0  0
    2.4450   -1.8690   -5.7480 C   0  0
    2.1890   -1.0640   -3.0660 C   0  0
    2.9550   -0.6270   -5.3360 C   0  0
    2.8280   -0.2210   -3.9960 C   0  0
    2.0490   -0.6480   -1.6450 C   0  0
    3.3110    0.9470   -3.6190 O   0  0
    1.1660   -1.6190   -0.8590 C   0  0
    1.5800    0.8030   -1.5270 C   0  0
    3.5350   -0.8140   -1.3320 C   0  0
    0.8300   -1.1070    0.5410 C   0  0  1  0  0  0
    1.9590   -0.4360    1.0490 O   0  0
   -0.2970   -0.1250    0.3560 C   0  0
    0.4670   -2.2340    1.5100 C   0  0
   -0.9820   -0.1460   -0.6390 O   0  0
   -0.5330    0.7950    1.3380 N   0  0
   -0.0660   -1.7030    2.7910 C   0  0
   -1.5270    1.6820    1.1990 C   0  0
    0.8140   -1.3670    3.8360 C   0  0
   -1.4530   -1.5390    2.9630 C   0  0
   -2.8730    1.2400    1.0860 C   0  0
   -1.2540    3.0720    1.1660 C   0  0
    0.3090   -0.8650    5.0470 C   0  0
   -1.9570   -1.0370    4.1740 C   0  0
   -3.9320    2.1720    0.9380 C   0  0
   -2.3110    4.0020    1.0220 C   0  0
   -1.0760   -0.7010    5.2170 C   0  0
   -3.6390    3.5220    0.9100 C   0  0
   -5.4340    2.0530    0.7910 C   0  0
   -4.8560    4.2930    0.7540 C   0  0
   -5.9000    3.4340    0.6840 O   0  0
   -4.8930    5.5000    0.7010 O   0  0
    1.1880   -2.9550   -2.7680 H   0  0
    2.5450   -2.1760   -6.7790 H   0  0
    3.4430    0.0160   -6.0510 H   0  0
    3.7460    1.5120   -4.2720 H   0  0
    1.6290   -2.6040   -0.8090 H   0  0
    0.2580   -1.8500   -1.4140 H   0  0
    0.6950    0.9940   -2.1350 H   0  0
    2.3610    1.4880   -1.8520 H   0  0
    1.3320    1.0450   -0.4940 H   0  0
    3.8560   -1.8400   -1.5160 H   0  0
    4.1370   -0.1390   -1.9410 H   0  0
    3.7360   -0.5860   -0.2850 H   0  0
    2.5040   -1.0960    1.5060 H   0  0
    1.3340   -2.8630    1.7090 H   0  0
   -0.2640   -2.9060    1.0630 H   0  0
    0.0370    0.8070    2.1600 H   0  0
    1.8810   -1.4920    3.7110 H   0  0
   -2.1350   -1.7950    2.1640 H   0  0
   -3.1130    0.1860    1.1090 H   0  0
   -0.2400    3.4410    1.2500 H   0  0
    0.9860   -0.6070    5.8500 H   0  0
   -3.0220   -0.9100    4.3050 H   0  0
   -2.1060    5.0630    0.9980 H   0  0
   -1.4650   -0.3140    6.1490 H   0  0
   -5.8830    1.5860    1.6560 H   0  0
   -5.7030    1.5120   -0.1050 H   0  0
  1  2  1  0
  2  3  2  0
  2  4  1  0
  3  5  1  0
  4  6  2  0
  5  7  2  0
  5  8  1  0
  7  9  1  0
  8 10  1  0
  8 11  1  0
  8 12  1  0
 10 13  1  0
 13 14  1  0
 13 15  1  0
 13 16  1  0
 15 17  2  0
 15 18  1  0
 16 19  1  0
 18 20  1  0
 19 21  2  0
 19 22  1  0
 20 23  2  0
 20 24  1  0
 21 25  1  0
 22 26  2  0
 23 27  1  0
 24 28  2  0
 25 29  2  0
 27 30  2  0
 27 31  1  0
 30 32  1  0
 31 33  1  0
 32 34  2  0
  6  7  1  0
 26 29  1  0
 28 30  1  0
 32 33  1  0
  3 35  1  0
  4 36  1  0
  6 37  1  0
  9 38  1  0
 10 39  1  0
 10 40  1  0
 11 41  1  0
 11 42  1  0
 11 43  1  0
 12 44  1  0
 12 45  1  0
 12 46  1  0
 14 47  1  0
 16 48  1  0
 16 49  1  0
 18 50  1  0
 21 51  1  0
 22 52  1  0
 23 53  1  0
 24 54  1  0
 25 55  1  0
 26 56  1  0
 28 57  1  0
 29 58  1  0
 31 59  1  0
 31 60  1  0
M  END
> <Name>
CHEMBL196051

> <IC50 nM>
60

> <Molecule_ChEMBL_ID>
CHEMBL196051

> <Smiles>
CC(C)(CC(O)(Cc1ccccc1)C(=O)Nc1ccc2c(c1)COC2=O)c1cc(F)ccc1O

$$$$
CHEMBL194301
  SciTegic08162514323D

 66 69  0  0  1  0            999 V2000
    2.8090   -1.5200    4.5780 F   0  0
    3.4630   -1.1150    3.4920 C   0  0
    2.9180   -0.1110    2.6740 C   0  0
    4.7030   -1.6910    3.1640 C   0  0
    3.6090    0.3160    1.5260 C   0  0
    5.3930   -1.2660    2.0180 C   0  0
    4.8520   -0.2620    1.1950 C   0  0
    3.0230    1.3790    0.6680 C   0  0
    5.5100    0.1310    0.1230 O   0  0
    2.7560    0.4390   -0.5080 C   0  0
    4.0470    2.4630    0.3340 C   0  0
    1.7380    1.9470    1.2720 C   0  0
    1.3630   -0.1930   -0.4550 C   0  0  1  0  0  0
    1.2190   -0.8320    0.7930 O   0  0
    0.2660    0.8200   -0.6310 C   0  0
    1.1440   -1.2340   -1.5530 C   0  0
    0.4200    1.7870   -1.3400 O   0  0
   -0.9160    0.6290    0.0270 N   0  0
   -0.1660   -1.9180   -1.4040 C   0  0
   -1.9120    1.5160   -0.1090 C   0  0
   -0.2990   -2.9960   -0.5100 C   0  0
   -1.2720   -1.4900   -2.1600 C   0  0
   -3.2580    1.0740   -0.2250 C   0  0
   -1.6370    2.9080   -0.1420 C   0  0
   -1.5390   -3.6430   -0.3710 C   0  0
   -2.5120   -2.1370   -2.0190 C   0  0
   -4.3150    2.0060   -0.3710 C   0  0
   -2.6950    3.8360   -0.2870 C   0  0
   -2.6470   -3.2150   -1.1250 C   0  0
   -1.6820   -4.7810    0.5760 C   0  0
   -3.6820   -1.6840   -2.8160 C   0  0
   -4.0220    3.3560   -0.4000 C   0  0
   -5.8190    1.8870   -0.5190 C   0  0
   -5.2380    4.1270   -0.5550 C   0  0
   -6.2830    3.2680   -0.6250 O   0  0
   -5.2780    5.3360   -0.6090 O   0  0
    1.9650    0.3320    2.9280 H   0  0
    5.1270   -2.4630    3.7890 H   0  0
    6.3460   -1.7110    1.7680 H   0  0
    5.0820    0.7360   -0.4980 H   0  0
    2.9080    0.9550   -1.4570 H   0  0
    3.5250   -0.3300   -0.5700 H   0  0
    5.0020    2.2870    0.8300 H   0  0
    3.6860    3.4430    0.6450 H   0  0
    4.2320    2.5020   -0.7400 H   0  0
    1.0270    1.1600    1.5270 H   0  0
    1.2500    2.6250    0.5720 H   0  0
    1.9550    2.5060    2.1820 H   0  0
    1.8710   -1.5490    0.8260 H   0  0
    1.2030   -0.7710   -2.5390 H   0  0
    1.9450   -1.9750   -1.5470 H   0  0
   -1.0370   -0.1740    0.6130 H   0  0
    0.5510   -3.3240    0.0700 H   0  0
   -1.1700   -0.6620   -2.8480 H   0  0
   -3.4960    0.0220   -0.2010 H   0  0
   -0.6230    3.2750   -0.0600 H   0  0
   -2.4880    4.8970   -0.3120 H   0  0
   -3.6000   -3.7130   -1.0180 H   0  0
   -2.6600   -5.2620    0.5570 H   0  0
   -1.5000   -4.4340    1.5920 H   0  0
   -0.9340   -5.5410    0.3440 H   0  0
   -4.5510   -2.2930   -2.5660 H   0  0
   -3.8480   -0.6210   -2.6460 H   0  0
   -3.4750   -1.8220   -3.8790 H   0  0
   -6.2660    1.4200    0.3460 H   0  0
   -6.0880    1.3460   -1.4140 H   0  0
  1  2  1  0
  2  3  2  0
  2  4  1  0
  3  5  1  0
  4  6  2  0
  5  7  2  0
  5  8  1  0
  7  9  1  0
  8 10  1  0
  8 11  1  0
  8 12  1  0
 10 13  1  0
 13 14  1  0
 13 15  1  0
 13 16  1  0
 15 17  2  0
 15 18  1  0
 16 19  1  0
 18 20  1  0
 19 21  2  0
 19 22  1  0
 20 23  2  0
 20 24  1  0
 21 25  1  0
 22 26  2  0
 23 27  1  0
 24 28  2  0
 25 29  2  0
 25 30  1  0
 26 31  1  0
 27 32  2  0
 27 33  1  0
 32 34  1  0
 33 35  1  0
 34 36  2  0
  6  7  1  0
 26 29  1  0
 28 32  1  0
 34 35  1  0
  3 37  1  0
  4 38  1  0
  6 39  1  0
  9 40  1  0
 10 41  1  0
 10 42  1  0
 11 43  1  0
 11 44  1  0
 11 45  1  0
 12 46  1  0
 12 47  1  0
 12 48  1  0
 14 49  1  0
 16 50  1  0
 16 51  1  0
 18 52  1  0
 21 53  1  0
 22 54  1  0
 23 55  1  0
 24 56  1  0
 28 57  1  0
 29 58  1  0
 30 59  1  0
 30 60  1  0
 30 61  1  0
 31 62  1  0
 31 63  1  0
 31 64  1  0
 33 65  1  0
 33 66  1  0
M  END
> <Name>
CHEMBL194301

> <IC50 nM>
470

> <Molecule_ChEMBL_ID>
CHEMBL194301

> <Smiles>
Cc1cc(C)cc(CC(O)(CC(C)(C)c2cc(F)ccc2O)C(=O)Nc2ccc3c(c2)COC3=O)c1

$$$$
CHEMBL194804
  SciTegic08162514323D

 68 71  0  0  1  0            999 V2000
   -1.8380    0.3970    7.1560 O   0  0
   -0.8870    0.5980    6.4360 C   0  0
    0.2730    0.8670    7.0780 O   0  0
   -0.9960    0.5470    4.9510 C   0  0
    1.4430    1.1170    6.2370 N   0  0
    0.1760    0.7990    4.2070 C   0  0
   -2.2170    0.2600    4.2990 C   0  0
    1.4380    1.0960    4.9470 C   0  0
    0.1330    0.7660    2.7890 C   0  0
   -2.2580    0.2250    2.8830 C   0  0
    2.7250    1.3750    4.2150 C   0  0
   -1.0860    0.4790    2.1210 C   0  0
   -1.1310    0.4450    0.7810 N   0  0
   -0.1130   -0.1350    0.0780 C   0  0
    0.8300   -0.6190    0.6560 O   0  0
   -0.1950   -0.1560   -1.4260 C   0  0  1  0  0  0
   -1.0270    0.8930   -1.8650 O   0  0
    1.2270    0.1210   -1.9180 C   0  0
   -0.7600   -1.4730   -1.9610 C   0  0
    1.5760    1.6090   -1.9020 C   0  0
   -1.9920   -1.9450   -1.1850 C   0  0
    3.0220    1.3850   -2.1660 C   0  0
    0.9100    2.3850   -3.0390 C   0  0
    1.3480    2.2540   -0.5350 C   0  0
   -2.2320   -3.4510   -1.3910 C   0  0
   -3.2380   -1.1270   -1.5740 C   0  0
    3.9430    1.4000   -1.1030 C   0  0
    3.4710    1.1540   -3.4780 C   0  0
   -3.4940   -3.9380   -0.6620 C   0  0
   -4.5000   -1.6190   -0.8500 C   0  0
    5.3090    1.1880   -1.3530 C   0  0
    4.8380    0.9410   -3.7280 C   0  0
   -4.7270   -3.1190   -1.0680 C   0  0
    5.7560    0.9590   -2.6660 C   0  0
   -3.1150    0.0660    4.8650 H   0  0
    1.0310    0.9610    2.2210 H   0  0
   -3.1950    0.0020    2.3950 H   0  0
    3.4980    1.6680    4.9260 H   0  0
    3.0220    0.4980    3.6410 H   0  0
    2.5840    2.1990    3.5180 H   0  0
   -1.9100    0.8460    0.3010 H   0  0
   -1.1600    0.7720   -2.8180 H   0  0
    1.3770   -0.2990   -2.9140 H   0  0
    1.9530   -0.4530   -1.3440 H   0  0
    0.0100   -2.2460   -1.9710 H   0  0
   -0.9800   -1.3930   -3.0250 H   0  0
   -1.7970   -1.7770   -0.1270 H   0  0
    0.6270    1.7320   -3.8650 H   0  0
    1.5840    3.1450   -3.4340 H   0  0
    0.0100    2.8890   -2.6870 H   0  0
    1.6540    1.5980    0.2790 H   0  0
    0.2930    2.4920   -0.3920 H   0  0
    1.9140    3.1820   -0.4470 H   0  0
   -1.3670   -4.0180   -1.0430 H   0  0
   -2.3300   -3.6640   -2.4550 H   0  0
   -3.0760   -0.0720   -1.3530 H   0  0
   -3.3970   -1.1950   -2.6520 H   0  0
    3.6060    1.5760   -0.0920 H   0  0
    2.7680    1.1390   -4.3010 H   0  0
   -3.3460   -3.8590    0.4160 H   0  0
   -3.6620   -4.9940   -0.8750 H   0  0
   -4.4060   -1.4180    0.2190 H   0  0
   -5.3670   -1.0570   -1.1950 H   0  0
    6.0160    1.2010   -0.5370 H   0  0
    5.1820    0.7640   -4.7360 H   0  0
   -5.5980   -3.4530   -0.5040 H   0  0
   -4.9510   -3.3030   -2.1190 H   0  0
    6.8070    0.7950   -2.8570 H   0  0
  1  2  2  0
  2  3  1  0
  2  4  1  0
  3  5  1  0
  4  6  2  0
  4  7  1  0
  5  8  2  0
  6  9  1  0
  7 10  2  0
  8 11  1  0
  9 12  2  0
 12 13  1  0
 13 14  1  0
 14 15  2  0
 14 16  1  0
 16 17  1  0
 16 18  1  0
 16 19  1  0
 18 20  1  0
 19 21  1  0
 20 22  1  0
 20 23  1  0
 20 24  1  0
 21 25  1  0
 21 26  1  0
 22 27  2  0
 22 28  1  0
 25 29  1  0
 26 30  1  0
 27 31  1  0
 28 32  2  0
 29 33  1  0
 31 34  2  0
  6  8  1  0
 10 12  1  0
 30 33  1  0
 32 34  1  0
  7 35  1  0
  9 36  1  0
 10 37  1  0
 11 38  1  0
 11 39  1  0
 11 40  1  0
 13 41  1  0
 17 42  1  0
 18 43  1  0
 18 44  1  0
 19 45  1  0
 19 46  1  0
 21 47  1  0
 23 48  1  0
 23 49  1  0
 23 50  1  0
 24 51  1  0
 24 52  1  0
 24 53  1  0
 25 54  1  0
 25 55  1  0
 26 56  1  0
 26 57  1  0
 27 58  1  0
 28 59  1  0
 29 60  1  0
 29 61  1  0
 30 62  1  0
 30 63  1  0
 31 64  1  0
 32 65  1  0
 33 66  1  0
 33 67  1  0
 34 68  1  0
M  END
> <Name>
CHEMBL194804

> <IC50 nM>
9

> <Molecule_ChEMBL_ID>
CHEMBL194804

> <Smiles>
Cc1noc(=O)c2ccc(NC(=O)C(O)(CC3CCCCC3)CC(C)(C)c3ccccc3)cc12

$$$$
CHEMBL186893
  SciTegic08162514323D

 42 44  0  0  1  0            999 V2000
   -4.4610    3.1310   -0.6520 O   0  0
   -3.4940    2.4120   -0.5470 C   0  0
   -2.1390    2.9510   -0.7750 C   0  0
   -3.6430    0.9570   -0.1720 C   0  0
   -1.0390    2.1680   -0.7720 C   0  0
   -2.3260    0.3520    0.3460 C   0  0
   -1.1370    0.6560   -0.5960 C   0  0  3  0  0  0
    0.3460    2.7580   -0.9140 C   0  0
    0.2070    0.0920   -0.0450 C   0  0  3  0  0  0
   -1.4080    0.0350   -1.9730 C   0  0
    1.2290    2.4080    0.2990 C   0  0
    0.0680   -1.3160    0.5490 C   0  0  3  0  0  0
    0.8690    1.0590    0.9530 C   0  0
   -0.4180   -1.1950    1.8670 O   0  0
    1.3710   -2.0350    0.5660 C   0  0
    2.2190   -1.9300    1.6840 C   0  0
    1.7560   -2.8180   -0.5350 C   0  0
    3.4490   -2.6080    1.6990 C   0  0
    2.9860   -3.4980   -0.5200 C   0  0
    3.8340   -3.3910    0.5980 C   0  0
   -2.0310    4.0120   -0.9430 H   0  0
   -4.4220    0.8520    0.5840 H   0  0
   -3.9820    0.4020   -1.0470 H   0  0
   -2.4590   -0.7230    0.4710 H   0  0
   -2.1170    0.7460    1.3420 H   0  0
    0.7970    2.3500   -1.8200 H   0  0
    0.3070    3.8380   -1.0550 H   0  0
    0.9040   -0.0020   -0.8790 H   0  0
   -2.2830    0.4920   -2.4360 H   0  0
   -0.5490    0.1680   -2.6310 H   0  0
   -1.5980   -1.0330   -1.8830 H   0  0
    1.1540    3.1950    1.0510 H   0  0
    2.2720    2.4000   -0.0200 H   0  0
   -0.6560   -1.8930   -0.0270 H   0  0
    0.1880    1.2300    1.7850 H   0  0
    1.7660    0.6130    1.3850 H   0  0
   -0.7600   -2.0650    2.1290 H   0  0
    1.9280   -1.3280    2.5330 H   0  0
    1.1090   -2.9040   -1.3970 H   0  0
    4.1000   -2.5250    2.5570 H   0  0
    3.2830   -4.1000   -1.3650 H   0  0
    4.7790   -3.9120    0.6090 H   0  0
  1  2  2  0
  2  3  1  0
  2  4  1  0
  3  5  2  0
  4  6  1  0
  5  7  1  0
  5  8  1  0
  7  9  1  0
  7 10  1  0
  8 11  1  0
  9 12  1  0
  9 13  1  0
 12 14  1  0
 12 15  1  0
 15 16  2  0
 15 17  1  0
 16 18  1  0
 17 19  2  0
 18 20  2  0
  6  7  1  0
 11 13  1  0
 19 20  1  0
  3 21  1  0
  4 22  1  0
  4 23  1  0
  6 24  1  0
  6 25  1  0
  8 26  1  0
  8 27  1  0
  9 28  1  0
 10 29  1  0
 10 30  1  0
 10 31  1  0
 11 32  1  0
 11 33  1  0
 12 34  1  0
 13 35  1  0
 13 36  1  0
 14 37  1  0
 16 38  1  0
 17 39  1  0
 18 40  1  0
 19 41  1  0
 20 42  1  0
M  END
> <Name>
CHEMBL186893

> <IC50 nM>
2100

> <Molecule_ChEMBL_ID>
CHEMBL186893

> <Smiles>
CC12CCC(=O)C=C1CCCC2C(O)c1ccccc1

$$$$
CHEMBL2087288
  SciTegic08162514323D

 57 60  0  0  0  0            999 V2000
    2.6990    3.1290    0.9530 Br  0  0
    0.8950    2.5570    1.0630 C   0  0
    0.2640    1.7750    0.0550 C   0  0
    0.1700    2.9380    2.2050 C   0  0
    0.9650    1.3950   -1.0700 N   0  0
   -1.0960    1.3910    0.2190 C   0  0
   -1.1700    2.5570    2.3610 C   0  0
    0.7710    2.0880   -2.3530 C   0  0
    1.9200    0.2790   -1.0000 C   0  0
   -2.0390    0.3500   -1.0550 Br  0  0
   -1.7990    1.7870    1.3710 C   0  0
   -1.9260    2.9670    3.5740 C   0  0
    0.6090    3.5530   -2.1640 C   0  0
    1.2660   -0.9730   -0.5410 C   0  0
   -2.1250    1.8220    4.5310 C   0  0
   -0.6680    4.0940   -1.9320 C   0  0
    1.7320    4.3980   -2.2170 C   0  0
    1.0880   -1.2130    0.8340 C   0  0
    0.8240   -1.9220   -1.4800 C   0  0
   -1.2420    1.0230    4.7380 O   0  0
   -3.3200    1.7730    5.1130 O   0  0
   -0.8220    5.4810   -1.7540 C   0  0
    1.5780    5.7850   -2.0370 C   0  0
    0.4690   -2.3970    1.2660 C   0  0
    0.2050   -3.1060   -1.0450 C   0  0
   -2.0310    5.9940   -1.5370 F   0  0
    0.3010    6.3260   -1.8070 C   0  0
    2.6410    6.5840   -2.0840 F   0  0
    0.0250   -3.3480    0.3300 C   0  0
   -0.5550   -4.4590    0.7360 O   0  0
   -0.3090   -5.5670    0.0670 C   0  0
   -1.3260   -6.5200   -0.1330 C   0  0
    0.9770   -5.8010   -0.4530 C   0  0
   -2.5470   -6.3090    0.3540 F   0  0
   -1.0550   -7.6990   -0.8500 C   0  0
    1.2460   -6.9810   -1.1700 C   0  0
    0.2300   -7.9300   -1.3670 C   0  0
    0.6350    3.5310    2.9810 H   0  0
   -0.1110    1.6860   -2.8500 H   0  0
    1.6310    1.8960   -2.9960 H   0  0
    2.7250    0.5410   -0.3120 H   0  0
    2.3590    0.1210   -1.9840 H   0  0
   -2.8320    1.5040    1.5100 H   0  0
   -1.3970    3.7790    4.0720 H   0  0
   -2.8930    3.3770    3.2790 H   0  0
   -1.5310    3.4450   -1.8890 H   0  0
    2.7130    3.9820   -2.3940 H   0  0
    1.4260   -0.4880    1.5610 H   0  0
    0.9570   -1.7440   -2.5370 H   0  0
   -3.5120    1.0620    5.7380 H   0  0
    0.3340   -2.5760    2.3220 H   0  0
   -0.1330   -3.8320   -1.7690 H   0  0
    0.1820    7.3910   -1.6680 H   0  0
    1.7620   -5.0740   -0.3030 H   0  0
   -1.8340   -8.4320   -1.0040 H   0  0
    2.2360   -7.1560   -1.5660 H   0  0
    0.4380   -8.8360   -1.9160 H   0  0
  1  2  1  0
  2  3  2  0
  2  4  1  0
  3  5  1  0
  3  6  1  0
  4  7  2  0
  5  8  1  0
  5  9  1  0
  6 10  1  0
  6 11  2  0
  7 12  1  0
  8 13  1  0
  9 14  1  0
 12 15  1  0
 13 16  2  0
 13 17  1  0
 14 18  2  0
 14 19  1  0
 15 20  2  0
 15 21  1  0
 16 22  1  0
 17 23  2  0
 18 24  1  0
 19 25  2  0
 22 26  1  0
 22 27  2  0
 23 28  1  0
 24 29  2  0
 29 30  1  0
 30 31  1  0
 31 32  2  0
 31 33  1  0
 32 34  1  0
 32 35  1  0
 33 36  2  0
 35 37  2  0
  7 11  1  0
 23 27  1  0
 25 29  1  0
 36 37  1  0
  4 38  1  0
  8 39  1  0
  8 40  1  0
  9 41  1  0
  9 42  1  0
 11 43  1  0
 12 44  1  0
 12 45  1  0
 16 46  1  0
 17 47  1  0
 18 48  1  0
 19 49  1  0
 21 50  1  0
 24 51  1  0
 25 52  1  0
 27 53  1  0
 33 54  1  0
 35 55  1  0
 36 56  1  0
 37 57  1  0
M  END
> <Name>
CHEMBL2087288

> <IC50 nM>
145

> <Molecule_ChEMBL_ID>
CHEMBL2087288

> <Smiles>
O=C(O)Cc1cc(Br)c(N(Cc2ccc(Oc3ccccc3F)cc2)Cc2cc(F)cc(F)c2)c(Br)c1

$$$$
CHEMBL4064973
  SciTegic08162514323D

 56 59  0  0  0  0            999 V2000
    2.6700    1.1500    0.6640 S   0  0
    3.6540    1.1640    1.7320 O   0  0
    3.2580    0.9920   -0.6540 O   0  0
    1.6950   -0.1190    0.9180 N   0  0
    1.8090    2.6450    0.6990 C   0  0
    0.5100   -0.2190    0.2400 C   0  0
    2.0820   -1.1620    1.8790 C   0  0
    0.8540    2.8810    1.7030 C   0  0
    2.0670    3.6250   -0.2760 C   0  0
   -0.5140   -1.0550    0.7240 C   0  0
    0.3130    0.5160   -0.9450 C   0  0
    2.5650   -2.3870    1.1890 C   0  0
    0.1520    4.1000    1.7320 C   0  0
    1.3630    4.8420   -0.2480 C   0  0
   -1.7280   -1.1540    0.0250 C   0  0
   -0.9040    0.4100   -1.6430 C   0  0
    1.7420   -3.5250    1.1150 C   0  0
    3.8480   -2.4100    0.6090 C   0  0
    0.4080    5.0780    0.7560 C   0  0
   -1.9280   -0.4240   -1.1600 C   0  0
    2.1990   -4.6840    0.4630 C   0  0
    4.3030   -3.5680   -0.0410 C   0  0
   -0.4530    6.5720    0.7910 S   0  0
   -3.0660   -0.5200   -1.8130 O   0  0
    3.4810   -4.7050   -0.1150 C   0  0
    0.8540    7.3320    0.5100 F   0  0
   -1.2190    7.9020    0.8200 F   0  0
   -1.7580    5.8150    1.0700 F   0  0
   -0.1950    6.6860    2.2990 F   0  0
   -0.7090    6.4590   -0.7190 F   0  0
   -3.6840   -1.6840   -1.8130 C   0  0
   -5.0900   -1.7380   -1.8130 C   0  0
   -2.9410   -2.8770   -1.8130 C   0  0
   -5.7480   -2.9800   -1.8130 C   0  0
   -3.5980   -4.1190   -1.8130 C   0  0
   -5.0020   -4.1720   -1.8130 C   0  0
    1.2250   -1.4120    2.5020 H   0  0
    2.8670   -0.7770    2.5290 H   0  0
    0.6560    2.1290    2.4530 H   0  0
    2.8010    3.4430   -1.0470 H   0  0
   -0.3810   -1.6250    1.6330 H   0  0
    1.0860    1.1620   -1.3340 H   0  0
   -0.5820    4.2790    2.5020 H   0  0
    1.5610    5.5960   -0.9980 H   0  0
   -2.5120   -1.7970    0.4000 H   0  0
   -1.0510    0.9750   -2.5510 H   0  0
    0.7560   -3.5160    1.5580 H   0  0
    4.4850   -1.5390    0.6620 H   0  0
    1.5670   -5.5570    0.4080 H   0  0
    5.2870   -3.5860   -0.4860 H   0  0
    3.8300   -5.5960   -0.6150 H   0  0
   -5.6660   -0.8260   -1.8130 H   0  0
   -1.8610   -2.8420   -1.8130 H   0  0
   -6.8280   -3.0200   -1.8130 H   0  0
   -3.0230   -5.0350   -1.8130 H   0  0
   -5.5080   -5.1250   -1.8130 H   0  0
  1  2  2  0
  1  3  2  0
  1  4  1  0
  1  5  1  0
  4  6  1  0
  4  7  1  0
  5  8  2  0
  5  9  1  0
  6 10  2  0
  6 11  1  0
  7 12  1  0
  8 13  1  0
  9 14  2  0
 10 15  1  0
 11 16  2  0
 12 17  2  0
 12 18  1  0
 13 19  2  0
 15 20  2  0
 17 21  1  0
 18 22  2  0
 19 23  1  0
 20 24  1  0
 21 25  2  0
 23 26  1  0
 23 27  1  0
 23 28  1  0
 23 29  1  0
 23 30  1  0
 24 31  1  0
 31 32  2  0
 31 33  1  0
 32 34  1  0
 33 35  2  0
 34 36  2  0
 14 19  1  0
 16 20  1  0
 22 25  1  0
 35 36  1  0
  7 37  1  0
  7 38  1  0
  8 39  1  0
  9 40  1  0
 10 41  1  0
 11 42  1  0
 13 43  1  0
 14 44  1  0
 15 45  1  0
 16 46  1  0
 17 47  1  0
 18 48  1  0
 21 49  1  0
 22 50  1  0
 25 51  1  0
 32 52  1  0
 33 53  1  0
 34 54  1  0
 35 55  1  0
 36 56  1  0
M  END
> <Name>
CHEMBL4064973

> <IC50 nM>
30000

> <Molecule_ChEMBL_ID>
CHEMBL4064973

> <Smiles>
O=S(=O)(c1ccc(S(F)(F)(F)(F)F)cc1)N(Cc1ccccc1)c1ccc(Oc2ccccc2)cc1

$$$$
CHEMBL4078581
  SciTegic08162514323D

 55 58  0  0  0  0            999 V2000
    0.4900   -0.6070    0.9510 S   0  0
   -0.1990   -0.4180    2.2150 O   0  0
    0.1560   -1.8630    0.2990 O   0  0
    0.0350    0.5920   -0.0390 N   0  0
    2.1890   -0.5880    1.2520 C   0  0
   -1.1130    0.4730   -0.7730 C   0  0
    0.8540    1.8070   -0.1440 C   0  0
    2.6680   -0.5570    2.5720 C   0  0
    3.0920   -0.6010    0.1760 C   0  0
   -1.2300    1.1330   -2.0120 C   0  0
   -2.1820   -0.3100   -0.2950 C   0  0
    1.2520    2.3190    1.1930 C   0  0
    4.0510   -0.5410    2.8170 C   0  0
    4.4770   -0.5860    0.4220 C   0  0
   -2.4100    1.0100   -2.7660 C   0  0
   -3.3590   -0.4320   -1.0530 C   0  0
    0.2660    2.6560    2.1390 C   0  0
    2.6130    2.4670    1.5140 C   0  0
    4.9590   -0.5550    1.7420 C   0  0
   -3.4770    0.2290   -2.2890 C   0  0
    0.6430    3.1390    3.4040 C   0  0
    2.9880    2.9490    2.7790 C   0  0
    6.2580   -0.5390    1.9730 O   0  0
   -4.5820    0.1130   -2.9980 O   0  0
    2.0040    3.2870    3.7250 C   0  0
    7.1090   -1.1660    1.0250 C   0  0
   -5.1990   -1.0510   -2.9980 C   0  0
    8.3150   -1.4510    1.6130 F   0  0
    7.3070   -0.3240   -0.0390 F   0  0
    6.5290   -2.3280    0.5880 F   0  0
   -6.6060   -1.1050   -2.9980 C   0  0
   -4.4550   -2.2440   -2.9980 C   0  0
   -7.2640   -2.3480   -2.9980 C   0  0
   -5.1130   -3.4860   -2.9980 C   0  0
   -6.5180   -3.5390   -2.9980 C   0  0
    0.2890    2.5740   -0.6740 H   0  0
    1.7460    1.5880   -0.7300 H   0  0
    1.9730   -0.5450    3.4010 H   0  0
    2.7250   -0.6270   -0.8400 H   0  0
   -0.4220    1.7400   -2.3960 H   0  0
   -2.1110   -0.8260    0.6520 H   0  0
    4.4160   -0.5170    3.8340 H   0  0
    5.1680   -0.5980   -0.4060 H   0  0
   -2.4960    1.5200   -3.7150 H   0  0
   -4.1760   -1.0350   -0.6820 H   0  0
   -0.7810    2.5450    1.8990 H   0  0
    3.3750    2.2090    0.7930 H   0  0
   -0.1130    3.3990    4.1290 H   0  0
    4.0330    3.0630    3.0260 H   0  0
    2.2930    3.6580    4.6950 H   0  0
   -7.1820   -0.1930   -2.9980 H   0  0
   -3.3770   -2.2090   -2.9980 H   0  0
   -8.3440   -2.3870   -2.9980 H   0  0
   -4.5390   -4.4020   -2.9980 H   0  0
   -7.0240   -4.4920   -2.9980 H   0  0
  1  2  2  0
  1  3  2  0
  1  4  1  0
  1  5  1  0
  4  6  1  0
  4  7  1  0
  5  8  2  0
  5  9  1  0
  6 10  2  0
  6 11  1  0
  7 12  1  0
  8 13  1  0
  9 14  2  0
 10 15  1  0
 11 16  2  0
 12 17  2  0
 12 18  1  0
 13 19  2  0
 15 20  2  0
 17 21  1  0
 18 22  2  0
 19 23  1  0
 20 24  1  0
 21 25  2  0
 23 26  1  0
 24 27  1  0
 26 28  1  0
 26 29  1  0
 26 30  1  0
 27 31  2  0
 27 32  1  0
 31 33  1  0
 32 34  2  0
 33 35  2  0
 14 19  1  0
 16 20  1  0
 22 25  1  0
 34 35  1  0
  7 36  1  0
  7 37  1  0
  8 38  1  0
  9 39  1  0
 10 40  1  0
 11 41  1  0
 13 42  1  0
 14 43  1  0
 15 44  1  0
 16 45  1  0
 17 46  1  0
 18 47  1  0
 21 48  1  0
 22 49  1  0
 25 50  1  0
 31 51  1  0
 32 52  1  0
 33 53  1  0
 34 54  1  0
 35 55  1  0
M  END
> <Name>
CHEMBL4078581

> <IC50 nM>
7480

> <Molecule_ChEMBL_ID>
CHEMBL4078581

> <Smiles>
O=S(=O)(c1ccc(OC(F)(F)F)cc1)N(Cc1ccccc1)c1ccc(Oc2ccccc2)cc1

$$$$
CHEMBL3973775
  SciTegic08162514323D

 57 61  0  0  1  0            999 V2000
   -2.8240   -1.4100   -7.9160 F   0  0
   -1.9340   -0.9200   -7.0550 C   0  0
   -0.6090   -0.6930   -7.4650 C   0  0
   -2.3200   -0.6310   -5.7350 C   0  0
    0.3300   -0.1780   -6.5550 C   0  0
   -1.3830   -0.1150   -4.8220 C   0  0
   -0.0550    0.1130   -5.2330 C   0  0
    0.8540    0.6110   -4.3520 N   0  0
    1.7830    1.5880   -4.6330 N   0  0
    1.0140    0.2500   -3.0550 C   0  0
    2.6020    1.9340   -3.5760 C   0  0
    2.0570    1.0620   -2.6490 C   0  0
    0.3790   -0.6800   -2.1950 C   0  0
    2.5260    0.9750   -1.3130 C   0  0
    0.8460   -0.7700   -0.8610 C   0  0
    1.9160    0.0550   -0.4200 C   0  0
    2.3520   -0.0370    0.8440 O   0  0
    1.4590   -0.5550    1.8200 C   0  0  2  0  0  0
    0.2210    0.2380    1.8220 C   0  0
    2.1390   -0.5410    3.1910 C   0  0  1  0  0  0
    0.2740    1.6540    1.8110 C   0  0
   -1.0430   -0.4080    1.8360 C   0  0
    1.2740   -1.1430    4.2150 N   0  0
    3.5140   -1.2070    3.1740 C   0  0
   -0.8770    2.4160    1.8110 N   0  0
   -2.2250    0.3790    1.8380 C   0  0
    1.4570   -0.8140    5.5270 C   0  0
   -2.1170    1.8090    1.8240 C   0  0
   -3.4980   -0.2440    1.8520 C   0  0
    2.3240   -0.0330    5.8440 O   0  0
    0.5630   -1.4400    6.5630 C   0  0
   -3.3030    2.5880    1.8240 C   0  0
   -4.6680    0.5490    1.8520 C   0  0
    0.9450   -0.9530    7.7850 F   0  0
    0.6970   -2.8050    6.5510 F   0  0
   -0.7480   -1.1070    6.3280 F   0  0
   -4.5700    1.9610    1.8360 C   0  0
   -0.3080   -0.9140   -8.4790 H   0  0
   -3.3380   -0.8050   -5.4140 H   0  0
    1.3460   -0.0100   -6.8890 H   0  0
   -1.6970    0.1000   -3.8130 H   0  0
    3.4010    2.6660   -3.5430 H   0  0
   -0.4330   -1.2990   -2.5430 H   0  0
    3.3400    1.5980   -0.9670 H   0  0
    0.3850   -1.4690   -0.1800 H   0  0
    1.2310   -1.5880    1.5590 H   0  0
    2.3870    0.4780    3.4860 H   0  0
    1.2330    2.1520    1.8010 H   0  0
   -1.0940   -1.4880    1.8460 H   0  0
    0.5550   -1.7870    3.9530 H   0  0
    3.9850   -1.1450    4.1560 H   0  0
    3.4320   -2.2560    2.8870 H   0  0
    4.1720   -0.7170    2.4570 H   0  0
   -3.5900   -1.3200    1.8610 H   0  0
   -3.2500    3.6680    1.8120 H   0  0
   -5.6390    0.0760    1.8610 H   0  0
   -5.4670    2.5630    1.8360 H   0  0
  1  2  1  0
  2  3  2  0
  2  4  1  0
  3  5  1  0
  4  6  2  0
  5  7  2  0
  7  8  1  0
  8  9  1  0
  8 10  1  0
  9 11  2  0
 10 12  1  0
 10 13  2  0
 12 14  2  0
 13 15  1  0
 14 16  1  0
 16 17  1  0
 18 17  1  0
 18 19  1  0
 18 20  1  0
 19 21  2  0
 19 22  1  0
 20 23  1  0
 20 24  1  0
 21 25  1  0
 22 26  2  0
 23 27  1  0
 25 28  2  0
 26 29  1  0
 27 30  2  0
 27 31  1  0
 28 32  1  0
 29 33  2  0
 31 34  1  0
 31 35  1  0
 31 36  1  0
 32 37  2  0
  6  7  1  0
 11 12  1  0
 15 16  2  0
 26 28  1  0
 33 37  1  0
  3 38  1  0
  4 39  1  0
  5 40  1  0
  6 41  1  0
 11 42  1  0
 13 43  1  0
 14 44  1  0
 15 45  1  0
 18 46  1  0
 20 47  1  0
 21 48  1  0
 22 49  1  0
 23 50  1  0
 24 51  1  0
 24 52  1  0
 24 53  1  0
 29 54  1  0
 32 55  1  0
 33 56  1  0
 37 57  1  0
M  END
> <Name>
CHEMBL3973775

> <IC50 nM>
0.04

> <Molecule_ChEMBL_ID>
CHEMBL3973775

> <Smiles>
C[C@H](NC(=O)C(F)(F)F)[C@H](Oc1ccc2c(cnn2-c2ccc(F)cc2)c1)c1cnc2ccccc2c1

$$$$
CHEMBL79335
  SciTegic08162514323D

 54 57  0  0  1  0            999 V2000
   -4.9780    7.0570   -0.1600 F   0  0
   -4.5820    5.7870   -0.1250 C   0  0
   -5.1480    4.9000    0.8070 C   0  0
   -3.5980    5.3320   -1.0180 C   0  0
   -4.7300    3.5590    0.8460 C   0  0
   -3.1780    3.9920   -0.9810 C   0  0
   -3.7420    3.1020   -0.0490 C   0  0
   -3.3380    1.8050   -0.0120 N   0  0
   -4.1760    0.7340    0.0470 N   0  0
   -2.0490    1.3750   -0.0310 C   0  0
   -3.5180   -0.4550    0.0820 C   0  0
   -2.2030    0.0040    0.0430 C   0  0
   -0.7580    2.0780   -0.1130 C   0  0
   -0.9550   -0.8630    0.1050 C   0  0
    0.3710    1.3570   -0.2930 C   0  0
    0.3360   -0.1740   -0.4630 C   0  0  1  0  0  0
    1.7070    2.0740   -0.3710 C   0  0
    1.5720   -0.8480    0.1930 C   0  0  1  0  0  0
    0.3750   -0.4000   -1.9830 C   0  0
    2.8540    1.3180    0.3010 C   0  0
    1.6600   -2.3440   -0.1410 C   0  0  1  0  0  0
    2.8930   -0.1430   -0.1490 C   0  0
    2.2970   -2.4790   -1.3910 O   0  0
    2.4650   -3.1310    0.8940 C   0  0
    2.3600   -4.6450    0.6950 C   0  0
    3.1150   -5.4140    1.7440 C   0  0
    4.2250   -6.0760    1.3770 C   0  0
   -5.9060    5.2460    1.4960 H   0  0
   -3.1600    6.0120   -1.7360 H   0  0
   -5.1780    2.8910    1.5700 H   0  0
   -2.4180    3.6620   -1.6760 H   0  0
   -3.9410   -1.4490    0.1310 H   0  0
   -0.7190    3.1540   -0.0350 H   0  0
   -1.1410   -1.8130   -0.3990 H   0  0
   -0.8100   -1.1070    1.1600 H   0  0
    1.9490    2.2270   -1.4240 H   0  0
    1.6310    3.0700    0.0680 H   0  0
    1.4550   -0.7730    1.2750 H   0  0
   -0.4040    0.1780   -2.4810 H   0  0
    1.3460   -0.1130   -2.3890 H   0  0
    0.2130   -1.4530   -2.2210 H   0  0
    2.7360    1.3610    1.3850 H   0  0
    3.8030    1.8050    0.0740 H   0  0
    0.6510   -2.7420   -0.2290 H   0  0
    3.0860   -0.1970   -1.2210 H   0  0
    3.7250   -0.6500    0.3440 H   0  0
    1.8260   -3.1720   -1.8770 H   0  0
    2.1660   -2.8560    1.9060 H   0  0
    3.5060   -2.8150    0.8960 H   0  0
    2.7790   -4.8480   -0.2890 H   0  0
    1.3170   -4.9590    0.6840 H   0  0
    2.8540   -5.4960    2.7890 H   0  0
    4.8670   -6.6700    2.0100 H   0  0
    4.4880   -5.9940    0.3320 H   0  0
  1  2  1  0
  2  3  2  0
  2  4  1  0
  3  5  1  0
  4  6  2  0
  5  7  2  0
  7  8  1  0
  8  9  1  0
  8 10  1  0
  9 11  2  0
 10 12  2  0
 10 13  1  0
 12 14  1  0
 13 15  2  0
 14 16  1  0
 15 17  1  0
 16 18  1  0
 16 19  1  0
 17 20  1  0
 18 21  1  0
 18 22  1  0
 21 23  1  0
 21 24  1  0
 24 25  1  0
 25 26  1  0
 26 27  2  0
  6  7  1  0
 11 12  1  0
 15 16  1  0
 20 22  1  0
  3 28  1  0
  4 29  1  0
  5 30  1  0
  6 31  1  0
 11 32  1  0
 13 33  1  0
 14 34  1  0
 14 35  1  0
 17 36  1  0
 17 37  1  0
 18 38  1  0
 19 39  1  0
 19 40  1  0
 19 41  1  0
 20 42  1  0
 20 43  1  0
 21 44  1  0
 22 45  1  0
 22 46  1  0
 23 47  1  0
 24 48  1  0
 24 49  1  0
 25 50  1  0
 25 51  1  0
 26 52  1  0
 27 53  1  0
 27 54  1  0
M  END
> <Name>
CHEMBL79335

> <IC50 nM>
4.2

> <Molecule_ChEMBL_ID>
CHEMBL79335

> <Smiles>
C=CCC[C@H](O)[C@H]1CCCC2=Cc3c(cnn3-c3ccc(F)cc3)C[C@@]21C

$$$$
CHEMBL303813
  SciTegic08162514323D

 43 46  0  0  1  0            999 V2000
   -4.2230   -1.9670    0.7520 S   0  0
   -4.0140   -2.8070   -0.4140 O   0  0
   -3.8630   -2.6210    1.9980 O   0  0
   -3.2740   -0.6640    0.5920 N   0  0
   -5.9470   -1.4960    0.8240 C   0  0
   -1.9410   -0.8090    0.5350 C   0  0
   -1.1000    0.3220    0.4180 C   0  0
   -1.3590   -2.0960    0.5920 C   0  0
    0.3160    0.1820    0.3550 C   0  0
    0.0430   -2.2520    0.5450 C   0  0
    0.9000   -1.1170    0.4570 C   0  0
    1.2030    1.3810    0.2130 C   0  0  1  0  0  0
    2.3830   -1.2320    0.4570 C   0  0
    2.5100    1.0650   -0.2850 O   0  0
    0.6390    2.4280   -0.6880 C   0  0
    3.1270   -0.0900    0.0370 C   0  0
    3.1040   -2.4080    0.8480 C   0  0
    0.2250    3.6640   -0.1600 C   0  0
    0.5210    2.1800   -2.0680 C   0  0
    4.5370   -0.1430   -0.0640 C   0  0
    2.4980   -3.5020    1.3300 O   0  0
    4.5140   -2.4430    0.7520 C   0  0
   -0.3070    4.6490   -1.0100 C   0  0
   -0.0100    3.1660   -2.9180 C   0  0
    5.2290   -1.3180    0.2890 C   0  0
   -0.4240    4.4010   -2.3890 C   0  0
   -3.6800    0.2460    0.5370 H   0  0
   -6.5690   -2.3910    0.8010 H   0  0
   -6.1210   -0.8850    1.7090 H   0  0
   -6.1970   -0.8960   -0.0510 H   0  0
   -1.5450    1.3070    0.3750 H   0  0
   -1.9790   -2.9790    0.6700 H   0  0
    0.4080   -3.2640    0.5740 H   0  0
    1.3280    1.8180    1.2050 H   0  0
    0.3120    3.8610    0.8980 H   0  0
    0.8380    1.2320   -2.4810 H   0  0
    5.0880    0.7190   -0.4120 H   0  0
    3.0310   -4.2770    1.5530 H   0  0
    5.0510   -3.3360    1.0350 H   0  0
   -0.6250    5.5980   -0.6040 H   0  0
   -0.1000    2.9750   -3.9770 H   0  0
    6.3050   -1.3590    0.2090 H   0  0
   -0.8320    5.1580   -3.0410 H   0  0
  1  2  2  0
  1  3  2  0
  1  4  1  0
  1  5  1  0
  4  6  1  0
  6  7  2  0
  6  8  1  0
  7  9  1  0
  8 10  2  0
  9 11  2  0
  9 12  1  0
 11 13  1  0
 12 14  1  0
 12 15  1  0
 13 16  2  0
 13 17  1  0
 15 18  2  0
 15 19  1  0
 16 20  1  0
 17 21  1  0
 17 22  2  0
 18 23  1  0
 19 24  2  0
 20 25  2  0
 23 26  2  0
 10 11  1  0
 14 16  1  0
 22 25  1  0
 24 26  1  0
  4 27  1  0
  5 28  1  0
  5 29  1  0
  5 30  1  0
  7 31  1  0
  8 32  1  0
 10 33  1  0
 12 34  1  0
 18 35  1  0
 19 36  1  0
 20 37  1  0
 21 38  1  0
 22 39  1  0
 23 40  1  0
 24 41  1  0
 25 42  1  0
 26 43  1  0
M  END
> <Name>
CHEMBL303813

> <IC50 nM>
892

> <Molecule_ChEMBL_ID>
CHEMBL303813

> <Smiles>
CS(=O)(=O)Nc1ccc2c(c1)C(c1ccccc1)Oc1cccc(O)c1-2

$$$$
CHEMBL4209216
  SciTegic08162514323D

 64 67  0  0  1  0            999 V2000
    3.3130    5.4940    3.0080 F   0  0
    3.8110    4.5160    2.2420 C   0  0
    4.9020    4.7930    1.2770 C   0  0
    3.3260    3.2600    2.3440 C   0  0
    5.3460    5.9120    1.1760 O   0  0
    5.4000    3.7620    0.5000 N   0  0
    3.8930    2.1910    1.4900 C   0  0
    4.8890    2.4840    0.6210 C   0  0
    6.4840    4.0160   -0.4670 C   0  0
    3.3830    0.8650    1.5920 N   0  0
    4.1970   -0.2310    1.6090 N   0  0
    2.0760    0.5820    1.6780 C   0  0
    3.4380   -1.3850    1.7150 C   0  0
    2.1680   -0.7970    1.7500 C   0  0
    0.8610    1.2990    1.7030 C   0  0
    0.9730   -1.5530    1.8590 C   0  0
   -0.3320    0.5410    1.8100 C   0  0
   -0.2790   -0.8770    1.8880 C   0  0
   -1.4140   -1.5840    1.9900 O   0  0
   -2.0330   -2.0250    0.7910 C   0  0  2  0  0  0
   -1.0290   -2.7210   -0.0570 C   0  0
   -2.6540   -0.8300    0.0680 C   0  0  1  0  0  0
   -0.9630   -4.1250   -0.0630 C   0  0
   -0.1470   -1.9730   -0.8580 C   0  0
   -3.2540   -1.2420   -1.2090 N   0  0
   -3.6660   -0.0780    0.9310 C   0  0
   -0.0140   -4.7810   -0.8650 C   0  0
    0.8010   -2.6290   -1.6600 C   0  0
   -2.9920   -0.5180   -2.3380 C   0  0
   -4.0310    1.2910    0.3550 C   0  0
   -4.8950   -0.9220    1.2710 C   0  0
    0.8670   -4.0330   -1.6640 C   0  0
   -2.2740    0.4530   -2.2870 O   0  0
   -3.6150   -0.9530   -3.6370 C   0  0
   -3.2050   -2.2210   -3.9650 F   0  0
   -4.9830   -0.9240   -3.5470 F   0  0
   -3.1520    0.0250   -4.7170 C   0  0
    2.5310    3.0410    3.0430 H   0  0
    5.2850    1.6860    0.0080 H   0  0
    6.8030    3.1430   -1.0370 H   0  0
    7.3560    4.4020    0.0640 H   0  0
    6.1620    4.7770   -1.1760 H   0  0
    3.7810   -2.4120    1.7540 H   0  0
    0.8400    2.3770    1.6440 H   0  0
    1.0020   -2.6310    1.9180 H   0  0
   -1.2870    1.0470    1.8340 H   0  0
   -2.8300   -2.7210    1.0560 H   0  0
   -1.9040   -0.0630   -0.1190 H   0  0
   -1.6370   -4.7050    0.5510 H   0  0
   -0.1930   -0.8930   -0.8600 H   0  0
   -3.8480   -2.0450   -1.2540 H   0  0
   -3.3030    0.0190    1.9550 H   0  0
    0.0370   -5.8600   -0.8670 H   0  0
    1.4790   -2.0550   -2.2760 H   0  0
   -4.7090    1.8380    1.0100 H   0  0
   -4.5180    1.1840   -0.6150 H   0  0
   -3.1390    1.9000    0.2130 H   0  0
   -5.5760   -0.3670    1.9160 H   0  0
   -5.4240   -1.2170    0.3630 H   0  0
   -4.6040   -1.8320    1.7970 H   0  0
    1.5980   -4.5370   -2.2810 H   0  0
   -3.5660   -0.2230   -5.6940 H   0  0
   -2.0660    0.0210   -4.8030 H   0  0
   -3.4630    1.0430   -4.4730 H   0  0
  1  2  1  0
  2  3  1  0
  2  4  2  0
  3  5  2  0
  3  6  1  0
  4  7  1  0
  6  8  1  0
  6  9  1  0
  7 10  1  0
 10 11  1  0
 10 12  1  0
 11 13  2  0
 12 14  1  0
 12 15  2  0
 14 16  2  0
 15 17  1  0
 16 18  1  0
 18 19  1  0
 20 19  1  0
 20 21  1  0
 20 22  1  0
 21 23  2  0
 21 24  1  0
 22 25  1  0
 22 26  1  0
 23 27  1  0
 24 28  2  0
 25 29  1  0
 26 30  1  0
 26 31  1  0
 27 32  2  0
 29 33  2  0
 29 34  1  0
 34 35  1  0
 34 36  1  0
 34 37  1  0
  7  8  2  0
 13 14  1  0
 17 18  2  0
 28 32  1  0
  4 38  1  0
  8 39  1  0
  9 40  1  0
  9 41  1  0
  9 42  1  0
 13 43  1  0
 15 44  1  0
 16 45  1  0
 17 46  1  0
 20 47  1  0
 22 48  1  0
 23 49  1  0
 24 50  1  0
 25 51  1  0
 26 52  1  0
 27 53  1  0
 28 54  1  0
 30 55  1  0
 30 56  1  0
 30 57  1  0
 31 58  1  0
 31 59  1  0
 31 60  1  0
 32 61  1  0
 37 62  1  0
 37 63  1  0
 37 64  1  0
M  END
> <Name>
CHEMBL4209216

> <IC50 nM>
301

> <Molecule_ChEMBL_ID>
CHEMBL4209216

> <Smiles>
CC(C)[C@H](NC(=O)C(C)(F)F)[C@H](Oc1ccc2c(cnn2-c2cc(F)c(=O)n(C)c2)c1)c1ccccc1

$$$$
CHEMBL81111
  SciTegic08162514323D

 54 58  0  0  1  0            999 V2000
    4.6060   -5.5590    3.9160 Cl  0  0
    3.7560   -4.6900    2.7070 C   0  0
    4.4610   -4.0720    1.6560 C   0  0
    2.3540   -4.5920    2.7620 C   0  0
    3.7640   -3.3630    0.6640 C   0  0
    1.6580   -3.8810    1.7690 C   0  0
    2.3630   -3.2660    0.7190 C   0  0
    1.6270   -2.5140   -0.3300 C   0  0  2  0  0  0
    2.2950   -2.6540   -1.5650 O   0  0
    1.5370   -1.0200    0.0020 C   0  0  2  0  0  0
    0.2990   -0.3460   -0.6540 C   0  0  2  0  0  0
    2.8580   -0.3130   -0.3400 C   0  0
    0.3360    1.1860   -0.4840 C   0  0
   -0.9900   -1.0350   -0.0860 C   0  0
    0.3400   -0.5700   -2.1740 C   0  0
    2.8180    1.1480    0.1090 C   0  0
   -0.7930    1.9080   -0.3050 C   0  0
    1.6700    1.9040   -0.5630 C   0  0
   -2.2380   -0.1660   -0.1490 C   0  0
   -2.0840    1.2050   -0.2250 C   0  0
   -3.5530   -0.6250   -0.1090 C   0  0
   -3.3750    1.6350   -0.2030 N   0  0
   -4.2110    0.5640   -0.1450 N   0  0
   -3.7790    2.9320   -0.2400 C   0  0
   -4.7810    3.3830    0.6390 C   0  0
   -3.1970    3.8280   -1.1580 C   0  0
   -5.2010    4.7250    0.6000 C   0  0
   -3.6170    5.1680   -1.1950 C   0  0
   -4.6190    5.6170   -0.3160 C   0  0
   -5.0160    6.8890   -0.3540 F   0  0
    5.5390   -4.1370    1.6020 H   0  0
    1.7990   -5.0610    3.5640 H   0  0
    4.3110   -2.8930   -0.1410 H   0  0
    0.5820   -3.8090    1.8180 H   0  0
    0.6250   -2.9300   -0.4400 H   0  0
    2.2330   -3.5880   -1.8180 H   0  0
    1.4200   -0.9470    1.0840 H   0  0
    3.0490   -0.3670   -1.4120 H   0  0
    3.6900   -0.8200    0.1500 H   0  0
   -1.1760   -1.9820   -0.5920 H   0  0
   -0.8480   -1.2810    0.9690 H   0  0
   -0.4590   -0.0160   -2.6660 H   0  0
    1.2990   -0.2520   -2.5840 H   0  0
    0.2090   -1.6250   -2.4100 H   0  0
    2.7030    1.1910    1.1930 H   0  0
    3.7680    1.6350   -0.1190 H   0  0
   -0.7560    2.9840   -0.2290 H   0  0
    1.9120    2.0550   -1.6150 H   0  0
    1.5960    2.9000   -0.1230 H   0  0
   -3.9770   -1.6190   -0.0630 H   0  0
   -5.2420    2.7130    1.3520 H   0  0
   -2.4260    3.5020   -1.8420 H   0  0
   -5.9710    5.0660    1.2770 H   0  0
   -3.1680    5.8520   -1.9020 H   0  0
  1  2  1  0
  2  3  2  0
  2  4  1  0
  3  5  1  0
  4  6  2  0
  5  7  2  0
  7  8  1  0
  8  9  1  0
  8 10  1  0
 10 11  1  0
 10 12  1  0
 11 13  1  0
 11 14  1  0
 11 15  1  0
 12 16  1  0
 13 17  2  0
 13 18  1  0
 14 19  1  0
 17 20  1  0
 19 21  1  0
 20 22  1  0
 21 23  2  0
 22 24  1  0
 24 25  2  0
 24 26  1  0
 25 27  1  0
 26 28  2  0
 27 29  2  0
 29 30  1  0
  6  7  1  0
 16 18  1  0
 19 20  2  0
 22 23  1  0
 28 29  1  0
  3 31  1  0
  4 32  1  0
  5 33  1  0
  6 34  1  0
  8 35  1  0
  9 36  1  0
 10 37  1  0
 12 38  1  0
 12 39  1  0
 14 40  1  0
 14 41  1  0
 15 42  1  0
 15 43  1  0
 15 44  1  0
 16 45  1  0
 16 46  1  0
 17 47  1  0
 18 48  1  0
 18 49  1  0
 21 50  1  0
 25 51  1  0
 26 52  1  0
 27 53  1  0
 28 54  1  0
M  END
> <Name>
CHEMBL81111

> <IC50 nM>
9

> <Molecule_ChEMBL_ID>
CHEMBL81111

> <Smiles>
C[C@]12Cc3cnn(-c4ccc(F)cc4)c3C=C1CCC[C@@H]2[C@@H](O)c1ccc(Cl)cc1

$$$$
CHEMBL419479
  SciTegic08162514323D

 60 64  0  0  1  0            999 V2000
   -5.5310    7.6000   -0.6800 F   0  0
   -5.0650    6.3560   -0.6010 C   0  0
   -5.7480    5.3930    0.1600 C   0  0
   -3.8850    6.0040   -1.2810 C   0  0
   -5.2560    4.0800    0.2440 C   0  0
   -3.3910    4.6890   -1.1990 C   0  0
   -4.0740    3.7250   -0.4350 C   0  0
   -3.5980    2.4550   -0.3550 N   0  0
   -4.3590    1.3340   -0.4630 N   0  0
   -2.2990    2.1050   -0.1600 C   0  0
   -3.6430    0.1840   -0.3380 C   0  0
   -2.3730    0.7250   -0.1410 C   0  0
   -1.0570    2.8850    0.0060 C   0  0
   -1.0920   -0.0610    0.1110 C   0  0
    0.1230    2.2230   -0.0140 C   0  0
    0.1930    0.7190   -0.3300 C   0  0  1  0  0  0
    1.4160    2.9630    0.2600 C   0  0
    1.4450    0.1210    0.3630 C   0  0  1  0  0  0
    0.3340    0.5880   -1.8530 C   0  0
    2.6040    2.2910   -0.4390 C   0  0
    1.5530   -1.3990    0.1800 C   0  0  1  0  0  0
    2.7660    0.8120   -0.0530 C   0  0
    1.8790   -1.6580   -1.1680 O   0  0
    2.6330   -2.0250    1.0610 C   0  0
    2.5980   -3.5100    0.9980 C   0  0
    3.5980   -4.2090    0.3010 C   0  0
    1.5640   -4.2170    1.6390 C   0  0
    3.5640   -5.6130    0.2420 C   0  0
    1.5310   -5.6210    1.5780 C   0  0
    2.5310   -6.3200    0.8810 C   0  0
    2.4960   -7.8070    0.8180 C   0  0
   -6.6560    5.6600    0.6840 H   0  0
   -3.3560    6.7400   -1.8670 H   0  0
   -5.7970    3.3540    0.8360 H   0  0
   -2.4810    4.4390   -1.7280 H   0  0
   -4.0000   -0.8360   -0.3850 H   0  0
   -1.0940    3.9550    0.1410 H   0  0
   -1.1470   -1.0290   -0.3850 H   0  0
   -1.0490   -0.2660    1.1820 H   0  0
    1.3340    3.9980   -0.0760 H   0  0
    1.5880    2.9940    1.3360 H   0  0
    1.3220    0.2930    1.4340 H   0  0
    1.3630    0.7400   -2.1820 H   0  0
   -0.2890    1.3240   -2.3630 H   0  0
    0.0190   -0.4000   -2.1870 H   0  0
    3.5230    2.8360   -0.2300 H   0  0
    2.4530    2.3630   -1.5180 H   0  0
    0.6000   -1.8810    0.3970 H   0  0
    3.4770    0.7250    0.7700 H   0  0
    3.2190    0.2870   -0.8940 H   0  0
    1.5900   -2.5630   -1.3630 H   0  0
    3.6230   -1.6720    0.7680 H   0  0
    2.5210   -1.7010    2.0960 H   0  0
    4.3970   -3.6720   -0.1910 H   0  0
    0.7930   -3.6860    2.1760 H   0  0
    4.3360   -6.1450   -0.2950 H   0  0
    0.7340   -6.1580    2.0720 H   0  0
    1.6350   -8.1720    1.3770 H   0  0
    2.4900   -8.1250   -0.2230 H   0  0
    3.3930   -8.2110    1.2870 H   0  0
  1  2  1  0
  2  3  2  0
  2  4  1  0
  3  5  1  0
  4  6  2  0
  5  7  2  0
  7  8  1  0
  8  9  1  0
  8 10  1  0
  9 11  2  0
 10 12  2  0
 10 13  1  0
 12 14  1  0
 13 15  2  0
 14 16  1  0
 15 17  1  0
 16 18  1  0
 16 19  1  0
 17 20  1  0
 18 21  1  0
 18 22  1  0
 21 23  1  0
 21 24  1  0
 24 25  1  0
 25 26  2  0
 25 27  1  0
 26 28  1  0
 27 29  2  0
 28 30  2  0
 30 31  1  0
  6  7  1  0
 11 12  1  0
 15 16  1  0
 20 22  1  0
 29 30  1  0
  3 32  1  0
  4 33  1  0
  5 34  1  0
  6 35  1  0
 11 36  1  0
 13 37  1  0
 14 38  1  0
 14 39  1  0
 17 40  1  0
 17 41  1  0
 18 42  1  0
 19 43  1  0
 19 44  1  0
 19 45  1  0
 20 46  1  0
 20 47  1  0
 21 48  1  0
 22 49  1  0
 22 50  1  0
 23 51  1  0
 24 52  1  0
 24 53  1  0
 26 54  1  0
 27 55  1  0
 28 56  1  0
 29 57  1  0
 31 58  1  0
 31 59  1  0
 31 60  1  0
M  END
> <Name>
CHEMBL419479

> <IC50 nM>
3.4

> <Molecule_ChEMBL_ID>
CHEMBL419479

> <Smiles>
Cc1ccc(C[C@H](O)[C@H]2CCCC3=Cc4c(cnn4-c4ccc(F)cc4)C[C@@]32C)cc1

$$$$
CHEMBL293388
  SciTegic08162514323D

 43 46  0  0  1  0            999 V2000
   -2.9140    3.9240   -0.6990 S   0  0
   -2.5840    4.0860    0.7050 O   0  0
   -1.9590    4.5610   -1.5900 O   0  0
   -2.9010    2.3380   -1.0230 N   0  0
   -4.5330    4.6250   -0.9960 C   0  0
   -1.7740    1.6310   -0.8630 C   0  0
   -1.7500    0.2420   -1.1430 C   0  0
   -0.5900    2.2620   -0.4120 C   0  0
   -0.5630   -0.5100   -0.9670 C   0  0
    0.6030    1.5220   -0.2480 C   0  0
    0.6330    0.1210   -0.5120 C   0  0
   -0.5670   -1.9690   -1.2480 C   0  0  1  0  0  0
    1.8530   -0.7150   -0.3540 C   0  0
    0.7360   -2.4730   -1.5820 O   0  0
   -1.0920   -2.7110   -0.0330 C   0  0
    1.8400   -2.0080   -0.9590 C   0  0
    3.0270   -0.3030    0.3520 C   0  0
   -2.5000   -3.6580   -0.1310 S   0  0
   -0.5470   -2.7210    1.2600 C   0  0
    2.9900   -2.8280   -0.9280 C   0  0
    3.1050    0.8610    1.0100 O   0  0
    4.1660   -1.1430    0.3870 C   0  0
   -2.4200   -4.0960    1.5100 C   0  0
   -1.3090   -3.5160    2.1430 C   0  0
    4.1520   -2.3970   -0.2560 C   0  0
    4.0780    0.9790    2.0390 C   0  0
   -3.7350    1.8850   -1.3420 H   0  0
   -4.6040    5.6930   -0.7950 H   0  0
   -5.2680    4.1190   -0.3710 H   0  0
   -4.8150    4.4630   -2.0370 H   0  0
   -2.6430   -0.2580   -1.4920 H   0  0
   -0.5780    3.3180   -0.1890 H   0  0
    1.4690    2.0740    0.0780 H   0  0
   -1.2230   -2.1930   -2.0900 H   0  0
    0.3480   -2.1860    1.5470 H   0  0
    2.9780   -3.7930   -1.4140 H   0  0
    5.0550   -0.8220    0.9100 H   0  0
   -3.1410   -4.7420    1.9920 H   0  0
   -1.0670   -3.6600    3.1880 H   0  0
    5.0290   -3.0270   -0.2320 H   0  0
    3.8870    1.9000    2.5880 H   0  0
    4.0660    0.0590    2.6250 H   0  0
    5.0590    1.0640    1.5740 H   0  0
  1  2  2  0
  1  3  2  0
  1  4  1  0
  1  5  1  0
  4  6  1  0
  6  7  2  0
  6  8  1  0
  7  9  1  0
  8 10  2  0
  9 11  2  0
  9 12  1  0
 11 13  1  0
 12 14  1  0
 12 15  1  0
 13 16  2  0
 13 17  1  0
 15 18  1  0
 15 19  2  0
 16 20  1  0
 17 21  1  0
 17 22  2  0
 18 23  1  0
 19 24  1  0
 20 25  2  0
 21 26  1  0
 10 11  1  0
 14 16  1  0
 22 25  1  0
 23 24  2  0
  4 27  1  0
  5 28  1  0
  5 29  1  0
  5 30  1  0
  7 31  1  0
  8 32  1  0
 10 33  1  0
 12 34  1  0
 19 35  1  0
 20 36  1  0
 22 37  1  0
 23 38  1  0
 24 39  1  0
 25 40  1  0
 26 41  1  0
 26 42  1  0
 26 43  1  0
M  END
> <Name>
CHEMBL293388

> <IC50 nM>
7

> <Molecule_ChEMBL_ID>
CHEMBL293388

> <Smiles>
COc1cccc2c1-c1ccc(NS(C)(=O)=O)cc1C(c1cccs1)O2

$$$$
CHEMBL311034
  SciTegic08162514323D

 54 58  0  0  1  0            999 V2000
   -3.7210    7.5640    1.6580 F   0  0
   -3.5900    6.2620    1.4160 C   0  0
   -2.6490    5.8120    0.4750 C   0  0
   -4.3950    5.3360    2.1020 C   0  0
   -2.5080    4.4370    0.2210 C   0  0
   -4.2580    3.9610    1.8480 C   0  0
   -3.3130    3.5080    0.9060 C   0  0
   -3.1800    2.1780    0.6600 N   0  0
   -4.2170    1.3180    0.4750 N   0  0
   -2.0040    1.5040    0.5590 C   0  0
   -3.8170    0.0370    0.2500 C   0  0
   -2.4360    0.2090    0.3240 C   0  0
   -0.5920    1.9140    0.6520 C   0  0
   -1.3850   -0.8870    0.1950 C   0  0
    0.3610    1.0190    0.3030 C   0  0
   -0.0040   -0.3440   -0.3050 C   0  0  1  0  0  0
    1.8260    1.3550    0.4880 C   0  0
    1.1210   -1.3600    0.0270 C   0  0  1  0  0  0
   -0.0900   -0.1470   -1.8260 C   0  0
    2.7030    0.6110   -0.5250 C   0  0
    0.8030   -2.7780   -0.4670 C   0  0  2  0  0  0
    2.5160   -0.9140   -0.4710 C   0  0
   -0.0860   -3.3750    0.4510 O   0  0
    2.0310   -3.6080   -0.5760 C   0  0
    2.4760   -4.0410   -1.8380 C   0  0
    2.7500   -3.9590    0.5800 C   0  0
    3.6390   -4.8240   -1.9430 C   0  0
    3.9100   -4.7440    0.4750 C   0  0
    4.3550   -5.1760   -0.7870 C   0  0
    5.4570   -5.9200   -0.8850 F   0  0
   -2.0280    6.5210   -0.0550 H   0  0
   -5.1190    5.6780    2.8260 H   0  0
   -1.7780    4.1110   -0.5080 H   0  0
   -4.8850    3.2640    2.3870 H   0  0
   -4.4340   -0.8340    0.0740 H   0  0
   -0.3280    2.9040    0.9960 H   0  0
   -1.2700   -1.3360    1.1840 H   0  0
   -1.7520   -1.6760   -0.4610 H   0  0
    2.1270    1.0960    1.5040 H   0  0
    1.9820    2.4310    0.3810 H   0  0
    1.1800   -1.4180    1.1150 H   0  0
   -0.6640    0.7480   -2.0680 H   0  0
    0.9060   -0.0570   -2.2600 H   0  0
   -0.5820   -0.9960   -2.2990 H   0  0
    2.4490    0.9670   -1.5250 H   0  0
    3.7520    0.8650   -0.3770 H   0  0
    0.3080   -2.7310   -1.4360 H   0  0
    3.2730   -1.3540    0.1780 H   0  0
    2.7090   -1.3170   -1.4670 H   0  0
   -0.3280   -4.2420    0.0920 H   0  0
    1.9300   -3.7740   -2.7300 H   0  0
    2.4120   -3.6290    1.5530 H   0  0
    3.9760   -5.1570   -2.9140 H   0  0
    4.4590   -5.0120    1.3670 H   0  0
  1  2  1  0
  2  3  2  0
  2  4  1  0
  3  5  1  0
  4  6  2  0
  5  7  2  0
  7  8  1  0
  8  9  1  0
  8 10  1  0
  9 11  2  0
 10 12  2  0
 10 13  1  0
 12 14  1  0
 13 15  2  0
 14 16  1  0
 15 17  1  0
 16 18  1  0
 16 19  1  0
 17 20  1  0
 18 21  1  0
 18 22  1  0
 21 23  1  0
 21 24  1  0
 24 25  2  0
 24 26  1  0
 25 27  1  0
 26 28  2  0
 27 29  2  0
 29 30  1  0
  6  7  1  0
 11 12  1  0
 15 16  1  0
 20 22  1  0
 28 29  1  0
  3 31  1  0
  4 32  1  0
  5 33  1  0
  6 34  1  0
 11 35  1  0
 13 36  1  0
 14 37  1  0
 14 38  1  0
 17 39  1  0
 17 40  1  0
 18 41  1  0
 19 42  1  0
 19 43  1  0
 19 44  1  0
 20 45  1  0
 20 46  1  0
 21 47  1  0
 22 48  1  0
 22 49  1  0
 23 50  1  0
 25 51  1  0
 26 52  1  0
 27 53  1  0
 28 54  1  0
M  END
> <Name>
CHEMBL311034

> <IC50 nM>
20.4

> <Molecule_ChEMBL_ID>
CHEMBL311034

> <Smiles>
C[C@]12Cc3cnn(-c4ccc(F)cc4)c3C=C1CCC[C@@H]2[C@H](O)c1ccc(F)cc1

$$$$
CHEMBL235060
  SciTegic08162514323D

 51 52  0  0  1  0            999 V2000
   -0.4470    3.6190   -4.6560 F   0  0
    0.0390    3.5780   -3.4180 C   0  0
   -0.3750    2.5660   -2.5330 C   0  0
    0.9670    4.5430   -2.9940 C   0  0
    0.1390    2.5220   -1.2240 C   0  0
    1.4790    4.4980   -1.6870 C   0  0
    1.0680    3.4900   -0.7990 C   0  0
   -0.3070    1.4470   -0.2970 C   0  0
    1.5570    3.4570    0.4260 O   0  0
    1.0230    0.6930   -0.3490 C   0  0
   -1.4650    0.6410   -0.8850 C   0  0
   -0.6170    1.9980    1.0960 C   0  0
    2.6910    4.2620    0.7130 C   0  0
    0.8790   -0.7830    0.0180 C   0  0  1  0  0  0
    0.2050   -1.4360   -1.0350 O   0  0
    2.2970   -1.3500    0.1040 C   0  0
    0.0800   -0.9960    1.3030 C   0  0
    3.1840   -0.4430   -0.4140 F   0  0
    2.3650   -2.5180   -0.6130 F   0  0
    2.6090   -1.6000    1.4140 F   0  0
   -0.6170   -2.3090    1.3030 C   0  0
   -2.0210   -2.3610    1.3030 C   0  0
    0.1290   -3.5020    1.3030 C   0  0
   -2.6800   -3.6040    1.3030 C   0  0
   -0.5290   -4.7440    1.3030 C   0  0
   -1.9360   -4.7970    1.3030 C   0  0
   -2.6310   -6.1090    1.3030 C   0  0
   -1.0900    1.8240   -2.8610 H   0  0
    1.2870    5.3220   -3.6700 H   0  0
    2.1930    5.2440   -1.3650 H   0  0
    1.7660    1.1780    0.2830 H   0  0
    1.4880    0.8050   -1.3300 H   0  0
   -2.2910    1.2830   -1.1930 H   0  0
   -1.8520   -0.0680   -0.1520 H   0  0
   -1.1390    0.0740   -1.7560 H   0  0
   -0.9080    3.0490    1.0610 H   0  0
    0.2540    1.9160    1.7460 H   0  0
   -1.4320    1.4410    1.5570 H   0  0
    3.4980    3.9650    0.0450 H   0  0
    2.3870    5.3090    0.6660 H   0  0
    3.0080    4.0530    1.7350 H   0  0
   -0.7300   -1.4840   -0.7890 H   0  0
   -0.6500   -0.1970    1.4400 H   0  0
    0.7290   -0.9280    2.1760 H   0  0
   -2.6020   -1.4490    1.3030 H   0  0
    1.2090   -3.4690    1.3030 H   0  0
   -3.7600   -3.6370    1.3030 H   0  0
    0.0490   -5.6560    1.3030 H   0  0
   -1.9630   -6.9710    1.3130 H   0  0
   -3.2620   -6.1880    0.4160 H   0  0
   -3.2770   -6.1800    2.1780 H   0  0
  1  2  1  0
  2  3  2  0
  2  4  1  0
  3  5  1  0
  4  6  2  0
  5  7  2  0
  5  8  1  0
  7  9  1  0
  8 10  1  0
  8 11  1  0
  8 12  1  0
  9 13  1  0
 10 14  1  0
 14 15  1  0
 14 16  1  0
 14 17  1  0
 16 18  1  0
 16 19  1  0
 16 20  1  0
 17 21  1  0
 21 22  2  0
 21 23  1  0
 22 24  1  0
 23 25  2  0
 24 26  2  0
 26 27  1  0
  6  7  1  0
 25 26  1  0
  3 28  1  0
  4 29  1  0
  6 30  1  0
 10 31  1  0
 10 32  1  0
 11 33  1  0
 11 34  1  0
 11 35  1  0
 12 36  1  0
 12 37  1  0
 12 38  1  0
 13 39  1  0
 13 40  1  0
 13 41  1  0
 15 42  1  0
 17 43  1  0
 17 44  1  0
 22 45  1  0
 23 46  1  0
 24 47  1  0
 25 48  1  0
 27 49  1  0
 27 50  1  0
 27 51  1  0
M  END
> <Name>
CHEMBL235060

> <IC50 nM>
945

> <Molecule_ChEMBL_ID>
CHEMBL235060

> <Smiles>
COc1ccc(F)cc1C(C)(C)CC(O)(Cc1ccc(C)cc1)C(F)(F)F

$$$$
CHEMBL244715
  SciTegic08162514323D

 59 63  0  0  0  0            999 V2000
    3.4710   -1.0290   -2.0900 S   0  0
    2.1990   -1.8460   -1.3090 C   0  0
    4.1900   -2.4670   -2.6350 C   0  0
    2.3160   -3.2420   -1.4610 C   0  0
    1.1370   -1.1620   -0.5800 C   0  0
    3.4550   -3.5880   -2.2210 C   0  0
    1.3830   -4.2130   -0.9080 C   0  0
    1.0860    0.1850   -0.4730 C   0  0
    0.4280   -3.8400   -0.2680 O   0  0
    1.6540   -5.4920   -1.1560 O   0  0
    2.1410    0.8420   -0.9690 O   0  0
   -0.0370    0.8910    0.2260 C   0  0
    0.6970   -6.3690   -0.5820 C   0  0
    2.3850    2.1270   -0.6350 C   0  0
   -1.3500    0.3400    0.4260 C   0  0
    0.2710    2.1910    0.7300 C   0  0
    1.5140    2.8690    0.2320 C   0  0
    3.5510    2.7250   -1.1680 C   0  0
   -2.1720    0.8890    1.4530 C   0  0
   -1.9260   -0.7600   -0.4240 C   0  0
   -0.6110    2.7700    1.6840 C   0  0
    1.8770    4.2210    0.5570 C   0  0
    3.8890    4.0510   -0.8380 C   0  0
   -3.3180    0.2680    1.8340 N   0  0
   -1.7930    2.1030    2.0700 C   0  0
   -3.0230   -1.4180    0.0040 C   0  0
   -1.3690   -1.1370   -1.7750 C   0  0
    1.1350    5.0040    1.3480 O   0  0
    3.0590    4.7930    0.0270 C   0  0
   -3.7070   -1.0740    1.3140 C   0  0
    0.0740    5.7400    0.7540 C   0  0
    3.3950    6.0530    0.3440 O   0  0
   -5.2210   -1.0960    1.0880 C   0  0
   -3.3300   -2.1330    2.3530 C   0  0
    5.0960   -2.5000   -3.2250 H   0  0
    0.3910   -1.7890   -0.1150 H   0  0
    3.7360   -4.6060   -2.4590 H   0  0
    0.9820   -7.3930   -0.8260 H   0  0
    0.6090   -6.1330    0.4780 H   0  0
   -0.2700   -6.1720   -1.0470 H   0  0
    4.1910    2.1640   -1.8320 H   0  0
   -0.4410    3.7150    2.1640 H   0  0
    4.7810    4.4980   -1.2460 H   0  0
   -3.9260    0.7030    2.5000 H   0  0
   -2.4080    2.5450    2.8420 H   0  0
   -3.4360   -2.2130   -0.6060 H   0  0
   -0.4940   -0.5530   -2.0650 H   0  0
   -2.1310   -0.9960   -2.5410 H   0  0
   -1.0820   -2.1880   -1.7790 H   0  0
    0.1780    5.9730   -0.3070 H   0  0
   -0.0330    6.6800    1.2930 H   0  0
   -0.8480    5.1740    0.8830 H   0  0
    4.2030    6.4320   -0.0240 H   0  0
   -5.5330   -0.3540    0.3520 H   0  0
   -5.7520   -0.8870    2.0160 H   0  0
   -5.5450   -2.0740    0.7300 H   0  0
   -2.2580   -2.1520    2.5450 H   0  0
   -3.6250   -3.1270    2.0160 H   0  0
   -3.8340   -1.9400    3.3010 H   0  0
  1  2  1  0
  1  3  1  0
  2  4  2  0
  2  5  1  0
  3  6  2  0
  4  7  1  0
  5  8  2  0
  7  9  2  0
  7 10  1  0
  8 11  1  0
  8 12  1  0
 10 13  1  0
 11 14  1  0
 12 15  2  0
 12 16  1  0
 14 17  2  0
 14 18  1  0
 15 19  1  0
 15 20  1  0
 16 21  2  0
 17 22  1  0
 18 23  2  0
 19 24  1  0
 19 25  2  0
 20 26  2  0
 20 27  1  0
 22 28  1  0
 22 29  2  0
 24 30  1  0
 28 31  1  0
 29 32  1  0
 30 33  1  0
 30 34  1  0
  4  6  1  0
 16 17  1  0
 21 25  1  0
 23 29  1  0
 26 30  1  0
  3 35  1  0
  5 36  1  0
  6 37  1  0
 13 38  1  0
 13 39  1  0
 13 40  1  0
 18 41  1  0
 21 42  1  0
 23 43  1  0
 24 44  1  0
 25 45  1  0
 26 46  1  0
 27 47  1  0
 27 48  1  0
 27 49  1  0
 31 50  1  0
 31 51  1  0
 31 52  1  0
 32 53  1  0
 33 54  1  0
 33 55  1  0
 33 56  1  0
 34 57  1  0
 34 58  1  0
 34 59  1  0
M  END
> <Name>
CHEMBL244715

> <IC50 nM>
1.8

> <Molecule_ChEMBL_ID>
CHEMBL244715

> <Smiles>
COC(=O)c1ccsc1/C=C1\Oc2ccc(O)c(OC)c2-c2ccc3c(c21)C(C)=CC(C)(C)N3

$$$$
CHEMBL382472
  SciTegic08162514323D

 56 59  0  0  0  0            999 V2000
   -1.1990   -2.7440   -0.6970 S   0  0
   -2.0720   -2.2340    0.8110 C   0  0
   -0.9840   -4.5040   -0.3100 C   0  0
   -2.3790   -0.7580    0.7400 C   0  0
   -0.2600   -5.1820   -1.4430 C   0  0
   -1.2930    0.2660    0.7910 C   0  0
   -3.6640   -0.3650    0.6290 C   0  0
    0.3360   -6.3610   -1.2090 C   0  0
   -1.6250    1.6480    0.7210 C   0  0
    0.0630   -0.1350    0.9080 C   0  0
   -4.0650    1.0980    0.5530 C   0  0
   -2.9180    2.0510    0.6060 N   0  0
   -0.5860    2.6130    0.7700 C   0  0
    1.0960    0.8320    0.9590 C   0  0
   -4.8180    1.3160   -0.7620 C   0  0
   -4.9980    1.3960    1.7290 C   0  0
    0.7640    2.2070    0.8890 C   0  0
    2.4900    0.4180    1.0800 C   0  0
    3.4690    0.8120    0.1350 C   0  0
    2.8590   -0.3970    2.1700 C   0  0
    3.1390    1.6500   -1.0080 C   0  0
    4.8030    0.3850    0.2970 C   0  0
    4.1910   -0.8160    2.3220 C   0  0
    2.1560    1.2360   -1.9260 C   0  0
    3.7990    2.8790   -1.1950 C   0  0
    5.1620   -0.4260    1.3850 C   0  0
    1.8360    2.0490   -3.0290 C   0  0
    3.4790    3.6890   -2.2990 C   0  0
    2.4980    3.2730   -3.2150 C   0  0
   -2.9980   -2.8030    0.9020 H   0  0
   -1.4470   -2.4430    1.6800 H   0  0
   -1.9610   -4.9670   -0.1680 H   0  0
   -0.4100   -4.6080    0.6090 H   0  0
   -0.1660   -4.8090   -2.4530 H   0  0
   -4.4400   -1.1150    0.5940 H   0  0
    0.8890   -6.9630   -1.9140 H   0  0
    0.2420   -6.7350   -0.1990 H   0  0
    0.3140   -1.1860    0.9610 H   0  0
   -3.1330    3.0270    0.5530 H   0  0
   -0.8070    3.6700    0.7190 H   0  0
   -4.1880    1.1130   -1.6290 H   0  0
   -5.1700    2.3460   -0.8400 H   0  0
   -5.6880    0.6620   -0.8220 H   0  0
   -4.4860    1.2380    2.6780 H   0  0
   -5.3580    2.4260    1.6860 H   0  0
   -5.8690    0.7400    1.7070 H   0  0
    1.5350    2.9630    0.9260 H   0  0
    2.1270   -0.7070    2.9020 H   0  0
    5.5660    0.6740   -0.4120 H   0  0
    4.4690   -1.4400    3.1580 H   0  0
    1.6370    0.2970   -1.7990 H   0  0
    4.5570    3.2150   -0.5000 H   0  0
    6.1860   -0.7480    1.5020 H   0  0
    1.0820    1.7280   -3.7340 H   0  0
    3.9860    4.6310   -2.4430 H   0  0
    2.2520    3.8960   -4.0640 H   0  0
  1  2  1  0
  1  3  1  0
  2  4  1  0
  3  5  1  0
  4  6  1  0
  4  7  2  0
  5  8  2  0
  6  9  2  0
  6 10  1  0
  7 11  1  0
  9 12  1  0
  9 13  1  0
 10 14  2  0
 11 15  1  0
 11 16  1  0
 13 17  2  0
 14 18  1  0
 18 19  2  0
 18 20  1  0
 19 21  1  0
 19 22  1  0
 20 23  2  0
 21 24  2  0
 21 25  1  0
 22 26  2  0
 24 27  1  0
 25 28  2  0
 27 29  2  0
 11 12  1  0
 14 17  1  0
 23 26  1  0
 28 29  1  0
  2 30  1  0
  2 31  1  0
  3 32  1  0
  3 33  1  0
  5 34  1  0
  7 35  1  0
  8 36  1  0
  8 37  1  0
 10 38  1  0
 12 39  1  0
 13 40  1  0
 15 41  1  0
 15 42  1  0
 15 43  1  0
 16 44  1  0
 16 45  1  0
 16 46  1  0
 17 47  1  0
 20 48  1  0
 22 49  1  0
 23 50  1  0
 24 51  1  0
 25 52  1  0
 26 53  1  0
 27 54  1  0
 28 55  1  0
 29 56  1  0
M  END
> <Name>
CHEMBL382472

> <IC50 nM>
2000

> <Molecule_ChEMBL_ID>
CHEMBL382472

> <Smiles>
C=CCSCC1=CC(C)(C)Nc2ccc(-c3ccccc3-c3ccccc3)cc21

$$$$
CHEMBL394345
  SciTegic08162514323D

 62 65  0  0  1  0            999 V2000
   -0.4590   -1.8420    0.3890 O   0  0
   -1.2870   -1.4820    1.4730 C   0  0  2  0  0  0
   -1.1110   -1.7580   -0.8590 C   0  0
   -1.5940   -0.0060    1.4020 C   0  0
   -0.5720   -1.8690    2.7680 C   0  0
   -0.1450   -2.2500   -1.9370 C   0  0
   -0.5080    1.0180    1.4530 C   0  0
   -2.8770    0.3890    1.2910 C   0  0
   -0.7620   -2.2030   -3.2870 C   0  0
   -0.8400    2.4000    1.3810 C   0  0
    0.8500    0.6170    1.5700 C   0  0
   -3.2790    1.8520    1.2150 C   0  0
   -0.0330   -2.6330   -4.4100 C   0  0
   -2.0760   -1.7270   -3.4450 C   0  0
   -2.1310    2.8030    1.2680 N   0  0
    0.2010    3.3650    1.4320 C   0  0
    1.8810    1.5860    1.6210 C   0  0
   -4.0310    2.0680   -0.1020 C   0  0
   -4.2130    2.1500    2.3910 C   0  0
   -0.6170   -2.5880   -5.6900 C   0  0
   -2.6580   -1.6800   -4.7230 C   0  0
    1.5490    2.9610    1.5510 C   0  0
    3.2730    1.1720    1.7420 C   0  0
   -1.9300   -2.1110   -5.8460 C   0  0
    3.8480    0.2930    0.7970 C   0  0
    4.0490    1.6540    2.8150 C   0  0
    3.1430   -0.1720   -0.2170 O   0  0
    5.1910   -0.0940    0.9360 C   0  0
    5.3910    1.2620    2.9450 C   0  0
    3.8180   -0.9390   -1.2010 C   0  0
    5.9630    0.3890    2.0060 C   0  0
   -2.2290   -2.0230    1.3750 H   0  0
   -1.3810   -0.7170   -1.0310 H   0  0
   -2.0000   -2.3870   -0.8200 H   0  0
   -1.1370   -2.6060    3.3380 H   0  0
   -0.4280   -0.9940    3.4040 H   0  0
    0.4100   -2.2910    2.5550 H   0  0
    0.1840   -3.2680   -1.7230 H   0  0
    0.7710   -1.6580   -1.9340 H   0  0
   -3.6540   -0.3630    1.2560 H   0  0
    1.1000   -0.4320    1.6230 H   0  0
    0.9770   -3.0000   -4.2970 H   0  0
   -2.6410   -1.3930   -2.5880 H   0  0
   -2.3480    3.7810    1.2150 H   0  0
   -0.0210    4.4220    1.3810 H   0  0
   -3.4020    1.8670   -0.9670 H   0  0
   -4.3850    3.0980   -0.1780 H   0  0
   -4.9020    1.4140   -0.1600 H   0  0
   -3.7170    2.0060    3.3500 H   0  0
   -5.0860    1.4960    2.3650 H   0  0
   -4.5680    3.1800    2.3500 H   0  0
   -0.0570   -2.9180   -6.5510 H   0  0
   -3.6680   -1.3140   -4.8440 H   0  0
    2.3220    3.7150    1.5860 H   0  0
   -2.3790   -2.0760   -6.8260 H   0  0
    3.6230    2.3260    3.5470 H   0  0
    5.6370   -0.7640    0.2150 H   0  0
    5.9840    1.6330    3.7680 H   0  0
    3.0900   -1.2480   -1.9530 H   0  0
    4.6680   -0.3590   -1.5620 H   0  0
    4.2070   -1.8400   -0.7270 H   0  0
    6.9960    0.0880    2.1060 H   0  0
  1  2  1  0
  1  3  1  0
  2  4  1  0
  2  5  1  0
  3  6  1  0
  4  7  1  0
  4  8  2  0
  6  9  1  0
  7 10  2  0
  7 11  1  0
  8 12  1  0
  9 13  2  0
  9 14  1  0
 10 15  1  0
 10 16  1  0
 11 17  2  0
 12 18  1  0
 12 19  1  0
 13 20  1  0
 14 21  2  0
 16 22  2  0
 17 23  1  0
 20 24  2  0
 23 25  2  0
 23 26  1  0
 25 27  1  0
 25 28  1  0
 26 29  2  0
 27 30  1  0
 28 31  2  0
 12 15  1  0
 17 22  1  0
 21 24  1  0
 29 31  1  0
  2 32  1  0
  3 33  1  0
  3 34  1  0
  5 35  1  0
  5 36  1  0
  5 37  1  0
  6 38  1  0
  6 39  1  0
  8 40  1  0
 11 41  1  0
 13 42  1  0
 14 43  1  0
 15 44  1  0
 16 45  1  0
 18 46  1  0
 18 47  1  0
 18 48  1  0
 19 49  1  0
 19 50  1  0
 19 51  1  0
 20 52  1  0
 21 53  1  0
 22 54  1  0
 24 55  1  0
 26 56  1  0
 28 57  1  0
 29 58  1  0
 30 59  1  0
 30 60  1  0
 30 61  1  0
 31 62  1  0
M  END
> <Name>
CHEMBL394345

> <IC50 nM>
404

> <Molecule_ChEMBL_ID>
CHEMBL394345

> <Smiles>
COc1ccccc1-c1ccc2c(c1)C(C(C)OCCc1ccccc1)=CC(C)(C)N2

$$$$
CHEMBL242675
  SciTegic08162514323D

 62 65  0  0  1  0            999 V2000
    6.1130    1.6950    3.9610 F   0  0
    5.3810    1.2400    2.9450 C   0  0
    4.0370    1.6310    2.8150 C   0  0
    5.9530    0.3670    2.0040 C   0  0
    3.2640    1.1480    1.7420 C   0  0
    5.1840   -0.1130    0.9340 C   0  0
    3.8380    0.2720    0.7950 C   0  0
    1.8710    1.5630    1.6190 C   0  0
    3.1330   -0.1910   -0.2190 O   0  0
    0.8400    0.5960    1.5700 C   0  0
    1.5390    2.9380    1.5490 C   0  0
    3.8070   -0.9630   -1.2010 C   0  0
   -0.5180    0.9960    1.4510 C   0  0
    0.1910    3.3440    1.4320 C   0  0
   -0.8500    2.3790    1.3810 C   0  0
   -1.6030   -0.0270    1.4000 C   0  0
   -2.1410    2.7810    1.2680 N   0  0
   -2.8870    0.3650    1.2910 C   0  0
   -1.2970   -1.5040    1.4710 C   0  0  1  0  0  0
   -3.2890    1.8280    1.2130 C   0  0
   -0.4690   -1.8630    0.3890 O   0  0
   -0.5840   -1.8910    2.7680 C   0  0
   -4.0430    2.0470   -0.1020 C   0  0
   -4.2230    2.1270    2.3890 C   0  0
   -1.1130   -1.7620   -0.8610 C   0  0
   -0.1350   -2.2210   -1.9430 C   0  0
   -0.7440   -2.1500   -3.2970 C   0  0
   -0.0020   -2.5470   -4.4240 C   0  0
   -2.0620   -1.6870   -3.4510 C   0  0
   -0.5780   -2.4790   -5.7050 C   0  0
   -2.6390   -1.6210   -4.7320 C   0  0
   -1.8960   -2.0180   -5.8590 C   0  0
    3.6090    2.3030    3.5450 H   0  0
    6.9860    0.0640    2.1020 H   0  0
    5.6270   -0.7850    0.2130 H   0  0
    1.0900   -0.4550    1.6230 H   0  0
    2.3130    3.6930    1.5860 H   0  0
    3.0800   -1.2700   -1.9530 H   0  0
    4.6580   -0.3870   -1.5620 H   0  0
    4.1930   -1.8630   -0.7250 H   0  0
   -0.0310    4.4000    1.3790 H   0  0
   -2.3570    3.7580    1.2150 H   0  0
   -3.6640   -0.3850    1.2540 H   0  0
   -2.2380   -2.0450    1.3730 H   0  0
   -1.1480   -2.6290    3.3380 H   0  0
   -0.4390   -1.0180    3.4040 H   0  0
    0.3990   -2.3140    2.5570 H   0  0
   -3.4120    1.8440   -0.9690 H   0  0
   -4.3950    3.0760   -0.1780 H   0  0
   -4.9120    1.3930   -0.1600 H   0  0
   -3.7270    1.9840    3.3500 H   0  0
   -5.0960    1.4750    2.3650 H   0  0
   -4.5780    3.1580    2.3480 H   0  0
   -1.3940   -0.7210   -1.0140 H   0  0
   -1.9940   -2.4020   -0.8420 H   0  0
    0.2030   -3.2380   -1.7500 H   0  0
    0.7740   -1.6190   -1.9220 H   0  0
    1.0120   -2.9020   -4.3130 H   0  0
   -2.6390   -1.3830   -2.5900 H   0  0
   -0.0080   -2.7830   -6.5700 H   0  0
   -3.6520   -1.2660   -4.8520 H   0  0
   -2.3400   -1.9650   -6.8440 H   0  0
  1  2  1  0
  2  3  2  0
  2  4  1  0
  3  5  1  0
  4  6  2  0
  5  7  2  0
  5  8  1  0
  7  9  1  0
  8 10  2  0
  8 11  1  0
  9 12  1  0
 10 13  1  0
 11 14  2  0
 13 15  2  0
 13 16  1  0
 15 17  1  0
 16 18  2  0
 16 19  1  0
 17 20  1  0
 19 21  1  0
 19 22  1  0
 20 23  1  0
 20 24  1  0
 21 25  1  0
 25 26  1  0
 26 27  1  0
 27 28  2  0
 27 29  1  0
 28 30  1  0
 29 31  2  0
 30 32  2  0
  6  7  1  0
 14 15  1  0
 18 20  1  0
 31 32  1  0
  3 33  1  0
  4 34  1  0
  6 35  1  0
 10 36  1  0
 11 37  1  0
 12 38  1  0
 12 39  1  0
 12 40  1  0
 14 41  1  0
 17 42  1  0
 18 43  1  0
 19 44  1  0
 22 45  1  0
 22 46  1  0
 22 47  1  0
 23 48  1  0
 23 49  1  0
 23 50  1  0
 24 51  1  0
 24 52  1  0
 24 53  1  0
 25 54  1  0
 25 55  1  0
 26 56  1  0
 26 57  1  0
 28 58  1  0
 29 59  1  0
 30 60  1  0
 31 61  1  0
 32 62  1  0
M  END
> <Name>
CHEMBL242675

> <IC50 nM>
195

> <Molecule_ChEMBL_ID>
CHEMBL242675

> <Smiles>
COc1ccc(F)cc1-c1ccc2c(c1)C(C(C)OCCc1ccccc1)=CC(C)(C)N2

$$$$
CHEMBL1917246
  SciTegic08162514323D

 69 74  0  0  1  0            999 V2000
   -7.3340    1.5020   -0.1040 S   0  0
   -6.0430    0.6500    0.7030 C   0  0
   -7.8970    0.0020   -0.5100 C   0  0
   -4.6640    1.0250    1.6040 S   0  0
   -6.1250   -0.7560    0.6090 N   0  0
   -7.2270   -1.1290   -0.1110 C   0  0
   -9.0820   -0.1450   -1.2750 C   0  0
   -3.4630   -0.0550    0.9320 C   0  0
   -7.6680   -2.4340   -0.4320 C   0  0
   -9.5590   -1.4340   -1.6190 C   0  0
   -2.0880    0.4730    1.2380 C   0  0
   -8.8480   -2.5840   -1.1970 C   0  0
   -1.9380    1.5080    1.8460 O   0  0
   -0.8980   -0.3300    0.7700 C   0  0  2  0  0  0
   -0.7290   -1.3910    1.6970 O   0  0
    0.4100    0.4840    0.6290 C   0  0  2  0  0  0
   -1.0660   -0.8980   -0.6620 C   0  0  1  0  0  0
    1.2870   -0.4960   -0.1600 C   0  0  1  0  0  0
    1.1660    0.8630    1.9200 C   0  0
    0.0920    1.7320   -0.2130 C   0  0
    0.3480   -0.9770   -1.2660 C   0  0
   -1.8050   -2.2340   -0.7660 C   0  0
    2.6270    0.1270   -0.5880 C   0  0  1  0  0  0
    2.5760    1.4430    1.6370 C   0  0  1  0  0  0
    3.4300    0.5510    0.6800 C   0  0  1  0  0  0
    3.4080   -0.8830   -1.4510 C   0  0
    2.4380    2.7560    1.1290 O   0  0
    3.6780   -0.5960    1.4080 F   0  0
    4.8360    1.1250    0.2890 C   0  0  2  0  0  0
    4.8070   -0.3710   -1.8220 C   0  0  1  0  0  0
    5.5610    0.0980   -0.5880 C   0  0
    5.6310    1.5200    1.5310 C   0  0
    4.7190    2.3960   -0.5630 C   0  0
    5.4670   -1.3770   -2.4920 F   0  0
    6.7930   -0.3690   -0.2850 C   0  0
    6.8540    1.0290    1.8110 C   0  0
    7.5080    0.0680    0.9180 C   0  0
    8.6110   -0.3540    1.1700 O   0  0
   -9.6250    0.7300   -1.6020 H   0  0
   -3.5860   -1.0470    1.3630 H   0  0
   -3.6000   -0.1230   -0.1480 H   0  0
   -7.1170   -3.3050   -0.1040 H   0  0
  -10.4610   -1.5410   -2.2030 H   0  0
   -9.2070   -3.5680   -1.4550 H   0  0
   -1.5610   -1.8870    1.7210 H   0  0
   -1.6230   -0.1860   -1.2540 H   0  0
    1.5100   -1.3560    0.4590 H   0  0
    0.5740    1.5590    2.5160 H   0  0
    1.2910   -0.0200    2.5450 H   0  0
    0.9920    2.1720   -0.6430 H   0  0
   -0.3970    2.4940    0.3950 H   0  0
   -0.5780    1.4800   -1.0350 H   0  0
    0.6110   -1.9730   -1.5940 H   0  0
    0.4180   -0.3300   -2.1290 H   0  0
   -1.9510   -2.5140   -1.8110 H   0  0
   -1.2460   -3.0240   -0.2620 H   0  0
   -2.7870   -2.1700   -0.2990 H   0  0
    2.4340    1.0120   -1.1970 H   0  0
    3.0880    1.5550    2.5920 H   0  0
    2.8520   -1.1040   -2.3610 H   0  0
    3.4980   -1.8300   -0.9140 H   0  0
    2.0590    3.2990    1.8380 H   0  0
    4.7050    0.4710   -2.5060 H   0  0
    5.2030    2.2290    2.2250 H   0  0
    5.6450    2.6170   -1.0940 H   0  0
    4.4810    3.2580    0.0620 H   0  0
    3.9260    2.2930   -1.3030 H   0  0
    7.2830   -1.0860   -0.9260 H   0  0
    7.3590    1.3520    2.7090 H   0  0
  1  2  1  0
  1  3  1  0
  2  4  1  0
  2  5  2  0
  3  6  1  0
  3  7  2  0
  4  8  1  0
  6  9  2  0
  7 10  1  0
  8 11  1  0
  9 12  1  0
 11 13  2  0
 11 14  1  0
 14 15  1  0
 14 16  1  0
 14 17  1  0
 16 18  1  0
 16 19  1  0
 16 20  1  0
 17 21  1  0
 17 22  1  0
 18 23  1  0
 19 24  1  0
 23 25  1  0
 23 26  1  0
 24 27  1  0
 25 28  1  0
 25 29  1  0
 26 30  1  0
 29 31  1  0
 29 32  1  0
 29 33  1  0
 30 34  1  0
 31 35  2  0
 32 36  2  0
 35 37  1  0
 37 38  2  0
  5  6  1  0
 10 12  2  0
 18 21  1  0
 24 25  1  0
 30 31  1  0
 36 37  1  0
  7 39  1  0
  8 40  1  0
  8 41  1  0
  9 42  1  0
 10 43  1  0
 12 44  1  0
 15 45  1  0
 17 46  1  0
 18 47  1  0
 19 48  1  0
 19 49  1  0
 20 50  1  0
 20 51  1  0
 20 52  1  0
 21 53  1  0
 21 54  1  0
 22 55  1  0
 22 56  1  0
 22 57  1  0
 23 58  1  0
 24 59  1  0
 26 60  1  0
 26 61  1  0
 27 62  1  0
 30 63  1  0
 32 64  1  0
 33 65  1  0
 33 66  1  0
 33 67  1  0
 35 68  1  0
 36 69  1  0
M  END
> <Name>
CHEMBL1917246

> <IC50 nM>
1.9

> <Molecule_ChEMBL_ID>
CHEMBL1917246

> <Smiles>
C[C@@H]1C[C@H]2[C@@H]3C[C@H](F)C4=CC(=O)C=C[C@]4(C)[C@@]3(F)[C@@H](O)C[C@]2(C)[C@@]1(O)C(=O)CSc1nc2ccccc2s1

$$$$
CHEMBL1917245
  SciTegic08162514323D

 69 74  0  0  1  0            999 V2000
    6.8630    1.9140    1.9900 S   0  0
    5.8890    1.3440    0.6600 C   0  0
    7.6040    0.4380    1.9140 C   0  0
    4.6350    1.9200   -0.3090 S   0  0
    6.1950    0.0330    0.2320 N   0  0
    7.2110   -0.4940    0.9820 C   0  0
    8.6540    0.1040    2.8090 C   0  0
    3.5430    0.5550   -0.3730 C   0  0
    7.8130   -1.7710    0.8770 C   0  0
    9.2830   -1.1640    2.7360 C   0  0
    2.1620    1.0310   -0.7380 C   0  0
    8.8600   -2.1050    1.7660 C   0  0
    1.9410    2.2010   -0.9410 O   0  0
    1.0610    0.0020   -0.8460 C   0  0  2  0  0  0
    1.1640   -0.5860   -2.1330 O   0  0
   -0.3630    0.5680   -0.6130 C   0  0  2  0  0  0
    1.1190   -1.0900    0.2520 C   0  0  1  0  0  0
   -1.1870   -0.7210   -0.4840 C   0  0  1  0  0  0
   -1.0020    1.4060   -1.7360 C   0  0
   -0.3280    1.3440    0.7170 C   0  0
   -0.3240   -1.5940    0.4260 C   0  0
    2.1070   -2.2280    0.0000 C   0  0
   -2.6270   -0.4370   -0.0160 C   0  0  1  0  0  0
   -2.4840    1.7400   -1.4360 C   0  0  1  0  0  0
   -3.3500    0.4960   -1.0310 C   0  0  1  0  0  0
   -3.3980   -1.7600    0.1760 C   0  0
   -2.5310    2.7500   -0.4450 O   0  0
   -3.4800   -0.2210   -2.2050 F   0  0
   -4.8050    0.8170   -0.5370 C   0  0  2  0  0  0
   -4.8440   -1.5160    0.6290 C   0  0
   -5.5610   -0.4760   -0.2150 C   0  0
   -5.5390    1.7030   -1.5350 C   0  0
   -4.7990    1.5900    0.7910 C   0  0
   -6.8220   -0.6990   -0.6450 C   0  0
   -6.7970    1.4570   -1.9470 C   0  0
   -7.5290    0.2770   -1.4770 C   0  0
   -8.6920    0.1170   -1.7700 O   0  0
    8.9790    0.8200    3.5490 H   0  0
    3.8970   -0.1600   -1.1170 H   0  0
    3.5200    0.0630    0.6000 H   0  0
    7.4830   -2.4820    0.1330 H   0  0
   10.0820   -1.4120    3.4180 H   0  0
    9.3360   -3.0720    1.7070 H   0  0
    2.0570   -0.9570   -2.2070 H   0  0
    1.4080   -0.6250    1.1840 H   0  0
   -1.2400   -1.2090   -1.4470 H   0  0
   -0.9590    0.8520   -2.6760 H   0  0
   -0.4240    2.3190   -1.9000 H   0  0
   -1.3300    1.5550    1.0900 H   0  0
    0.1890    2.2950    0.5960 H   0  0
    0.1990    0.7720    1.4810 H   0  0
   -0.4410   -2.6390    0.1700 H   0  0
   -0.6310   -1.4900    1.4570 H   0  0
    2.1350   -2.9100    0.8500 H   0  0
    1.8340   -2.7850   -0.8950 H   0  0
    3.1150   -1.8380   -0.1450 H   0  0
   -2.5880    0.0670    0.9530 H   0  0
   -2.9000    2.1990   -2.3320 H   0  0
   -3.4020   -2.3340   -0.7540 H   0  0
   -2.9000   -2.3850    0.9160 H   0  0
   -2.8090    3.5700   -0.8850 H   0  0
   -5.3910   -2.4590    0.6230 H   0  0
   -4.8420   -1.1740    1.6640 H   0  0
   -5.0410    2.5760   -1.9360 H   0  0
   -5.7620    1.5270    1.3010 H   0  0
   -4.5800    2.6450    0.6210 H   0  0
   -4.0390    1.1950    1.4630 H   0  0
   -7.3280   -1.6130   -0.3710 H   0  0
   -7.2680    2.1410   -2.6370 H   0  0
  1  2  1  0
  1  3  1  0
  2  4  1  0
  2  5  2  0
  3  6  1  0
  3  7  2  0
  4  8  1  0
  6  9  2  0
  7 10  1  0
  8 11  1  0
  9 12  1  0
 11 13  2  0
 11 14  1  0
 14 15  1  0
 14 16  1  0
 14 17  1  0
 16 18  1  0
 16 19  1  0
 16 20  1  0
 17 21  1  0
 17 22  1  0
 18 23  1  0
 19 24  1  0
 23 25  1  0
 23 26  1  0
 24 27  1  0
 25 28  1  0
 25 29  1  0
 26 30  1  0
 29 31  1  0
 29 32  1  0
 29 33  1  0
 31 34  2  0
 32 35  2  0
 34 36  1  0
 36 37  2  0
  5  6  1  0
 10 12  2  0
 18 21  1  0
 24 25  1  0
 30 31  1  0
 35 36  1  0
  7 38  1  0
  8 39  1  0
  8 40  1  0
  9 41  1  0
 10 42  1  0
 12 43  1  0
 15 44  1  0
 17 45  1  0
 18 46  1  0
 19 47  1  0
 19 48  1  0
 20 49  1  0
 20 50  1  0
 20 51  1  0
 21 52  1  0
 21 53  1  0
 22 54  1  0
 22 55  1  0
 22 56  1  0
 23 57  1  0
 24 58  1  0
 26 59  1  0
 26 60  1  0
 27 61  1  0
 30 62  1  0
 30 63  1  0
 32 64  1  0
 33 65  1  0
 33 66  1  0
 33 67  1  0
 34 68  1  0
 35 69  1  0
M  END
> <Name>
CHEMBL1917245

> <IC50 nM>
18

> <Molecule_ChEMBL_ID>
CHEMBL1917245

> <Smiles>
C[C@@H]1C[C@H]2[C@@H]3CCC4=CC(=O)C=C[C@]4(C)[C@@]3(F)[C@@H](O)C[C@]2(C)[C@@]1(O)C(=O)CSc1nc2ccccc2s1

$$$$
CHEMBL309243
  SciTegic08162514323D

 51 54  0  0  1  0            999 V2000
   -4.7750    6.7110   -0.0390 F   0  0
   -4.3770    5.4410   -0.0020 C   0  0
   -4.9590    4.5490    0.9140 C   0  0
   -3.3770    4.9920   -0.8810 C   0  0
   -4.5410    3.2070    0.9530 C   0  0
   -2.9570    3.6520   -0.8440 C   0  0
   -3.5390    2.7560    0.0740 C   0  0
   -3.1330    1.4590    0.1110 N   0  0
   -3.9710    0.3890    0.1700 N   0  0
   -1.8440    1.0290    0.0900 C   0  0
   -3.3130   -0.8010    0.2050 C   0  0
   -1.9980   -0.3440    0.1660 C   0  0
   -0.5530    1.7300    0.0100 C   0  0
   -0.7500   -1.2110    0.2280 C   0  0
    0.5760    1.0100   -0.1700 C   0  0
    0.5410   -0.5210   -0.3400 C   0  0  1  0  0  0
    1.9120    1.7290   -0.2480 C   0  0
    1.7790   -1.1950    0.3160 C   0  0  1  0  0  0
    0.5800   -0.7460   -1.8590 C   0  0
    3.0590    0.9710    0.4240 C   0  0
    1.8670   -2.6910   -0.0160 C   0  0  1  0  0  0
    3.1000   -0.4900   -0.0250 C   0  0
    2.5160   -2.8280   -1.2600 O   0  0
    2.6580   -3.4810    1.0250 C   0  0
    2.5920   -4.9670    0.7930 C   0  0
    3.7420   -5.6540    0.7170 C   0  0
   -5.7290    4.8910    1.5920 H   0  0
   -2.9280    5.6760   -1.5880 H   0  0
   -5.0000    2.5350    1.6660 H   0  0
   -2.1860    3.3240   -1.5270 H   0  0
   -3.7360   -1.7950    0.2520 H   0  0
   -0.5140    2.8090    0.0860 H   0  0
   -0.9360   -2.1600   -0.2770 H   0  0
   -0.6070   -1.4570    1.2830 H   0  0
    2.1520    1.8790   -1.3010 H   0  0
    1.8360    2.7230    0.1910 H   0  0
    1.6600   -1.1230    1.3980 H   0  0
   -0.2150   -0.1860   -2.3540 H   0  0
    1.5410   -0.4380   -2.2700 H   0  0
    0.4410   -1.8010   -2.0960 H   0  0
    2.9430    1.0160    1.5080 H   0  0
    4.0080    1.4590    0.1950 H   0  0
    0.8560   -3.0880   -0.1150 H   0  0
    3.2890   -0.5430   -1.0980 H   0  0
    3.9320   -0.9960    0.4650 H   0  0
    2.2540   -3.6900   -1.6250 H   0  0
    2.2130   -3.2360    1.9900 H   0  0
    3.6990   -3.1560    1.0470 H   0  0
    1.6930   -5.5530    0.6780 H   0  0
    3.8540   -6.7170    0.5550 H   0  0
    4.6410   -5.0680    0.8340 H   0  0
  1  2  1  0
  2  3  2  0
  2  4  1  0
  3  5  1  0
  4  6  2  0
  5  7  2  0
  7  8  1  0
  8  9  1  0
  8 10  1  0
  9 11  2  0
 10 12  2  0
 10 13  1  0
 12 14  1  0
 13 15  2  0
 14 16  1  0
 15 17  1  0
 16 18  1  0
 16 19  1  0
 17 20  1  0
 18 21  1  0
 18 22  1  0
 21 23  1  0
 21 24  1  0
 24 25  1  0
 25 26  2  0
  6  7  1  0
 11 12  1  0
 15 16  1  0
 20 22  1  0
  3 27  1  0
  4 28  1  0
  5 29  1  0
  6 30  1  0
 11 31  1  0
 13 32  1  0
 14 33  1  0
 14 34  1  0
 17 35  1  0
 17 36  1  0
 18 37  1  0
 19 38  1  0
 19 39  1  0
 19 40  1  0
 20 41  1  0
 20 42  1  0
 21 43  1  0
 22 44  1  0
 22 45  1  0
 23 46  1  0
 24 47  1  0
 24 48  1  0
 25 49  1  0
 26 50  1  0
 26 51  1  0
M  END
> <Name>
CHEMBL309243

> <IC50 nM>
3.9

> <Molecule_ChEMBL_ID>
CHEMBL309243

> <Smiles>
C=CC[C@H](O)[C@H]1CCCC2=Cc3c(cnn3-c3ccc(F)cc3)C[C@@]21C

$$$$
CHEMBL427899
  SciTegic08162514323D

 50 53  0  0  1  0            999 V2000
    0.6720   -2.3070    1.4260 Cl  0  0
    0.3400   -0.7680    0.7030 C   0  0
    1.4120    0.0430    0.2340 C   0  0
   -1.0080   -0.2970    0.5760 C   0  0
    2.8010   -0.3870    0.3320 C   0  0
    1.1560    1.3030   -0.3460 C   0  0
   -1.2620    0.9900   -0.0080 C   0  0
   -2.1490   -1.1410    1.0530 C   0  0  2  0  0  0
    3.4820   -0.9590   -0.7770 C   0  0
    3.4960   -0.2320    1.5610 C   0  0
   -0.1640    1.7790   -0.4670 C   0  0
   -2.5350    1.4690   -0.1290 N   0  0
   -3.4690   -0.7750    0.3560 C   0  0
   -2.2720   -1.0640    2.5800 C   0  0
    3.0980   -1.2400   -2.0860 N   0  0
    4.7910   -1.3590   -0.6640 C   0  0
    4.8500   -0.6500    1.6660 C   0  0
   -0.3570    3.1090   -1.0820 C   0  0
   -3.7340    0.7400    0.3630 C   0  0
    4.2190   -1.8140   -2.7340 C   0  0
    1.7830   -0.9940   -2.7010 C   0  0
    5.5120   -1.2190    0.5490 C   0  0
    5.2770   -1.8790   -1.8120 C   0  0
   -4.0610    1.2380    1.7750 C   0  0
   -4.9220    1.0530   -0.5530 C   0  0
    1.9730    1.9160   -0.7010 H   0  0
   -1.9650   -2.1840    0.7870 H   0  0
    3.0100    0.1990    2.4240 H   0  0
   -2.7050    2.3560   -0.5620 H   0  0
   -3.4280   -1.1290   -0.6760 H   0  0
   -4.3010   -1.3110    0.8160 H   0  0
   -1.8030   -1.9300    3.0490 H   0  0
   -1.7990   -0.1580    2.9590 H   0  0
   -3.3180   -1.0470    2.8810 H   0  0
    5.3770   -0.5330    2.6020 H   0  0
   -0.8850    3.8220   -0.4490 H   0  0
   -0.9220    3.0020   -2.0080 H   0  0
    0.6130    3.5390   -1.3300 H   0  0
    4.2210   -2.1390   -3.7680 H   0  0
    1.6970   -1.3360   -3.7320 H   0  0
    1.5680    0.0740   -2.6860 H   0  0
    1.0100   -1.4960   -2.1190 H   0  0
    6.5410   -1.5350    0.6310 H   0  0
    6.2700   -2.2660   -1.9960 H   0  0
   -4.8930    0.6890    2.2170 H   0  0
   -4.3300    2.2950    1.7600 H   0  0
   -3.1990    1.1230    2.4340 H   0  0
   -4.7700    0.6740   -1.5620 H   0  0
   -5.0820    2.1290   -0.6210 H   0  0
   -5.8360    0.6050   -0.1640 H   0  0
  1  2  1  0
  2  3  2  0
  2  4  1  0
  3  5  1  0
  3  6  1  0
  4  7  2  0
  4  8  1  0
  5  9  2  0
  5 10  1  0
  6 11  2  0
  7 12  1  0
  8 13  1  0
  8 14  1  0
  9 15  1  0
  9 16  1  0
 10 17  2  0
 11 18  1  0
 12 19  1  0
 15 20  1  0
 15 21  1  0
 16 22  2  0
 16 23  1  0
 19 24  1  0
 19 25  1  0
  7 11  1  0
 13 19  1  0
 17 22  1  0
 20 23  2  0
  6 26  1  0
  8 27  1  0
 10 28  1  0
 12 29  1  0
 13 30  1  0
 13 31  1  0
 14 32  1  0
 14 33  1  0
 14 34  1  0
 17 35  1  0
 18 36  1  0
 18 37  1  0
 18 38  1  0
 20 39  1  0
 21 40  1  0
 21 41  1  0
 21 42  1  0
 22 43  1  0
 23 44  1  0
 24 45  1  0
 24 46  1  0
 24 47  1  0
 25 48  1  0
 25 49  1  0
 25 50  1  0
M  END
> <Name>
CHEMBL427899

> <IC50 nM>
84

> <Molecule_ChEMBL_ID>
CHEMBL427899

> <Smiles>
Cc1cc(-c2cccc3ccn(C)c23)c(Cl)c2c1NC(C)(C)CC2C

$$$$
CHEMBL182853
  SciTegic08162514323D

 54 56  0  0  1  0            999 V2000
   -3.4940    4.1330    0.6720 O   0  0
   -2.5000    3.4470    0.6350 C   0  0
   -1.2270    4.0080    0.1440 C   0  0
   -2.5290    2.0100    1.0980 C   0  0
   -0.1150    3.2580   -0.0060 C   0  0
   -1.1210    1.4730    1.4100 C   0  0
   -0.1210    1.7560    0.2640 C   0  0  3  0  0  0
    1.2010    3.8750   -0.4200 C   0  0
    1.3160    1.2660    0.6030 C   0  0  3  0  0  0
   -0.5980    1.0490   -1.0120 C   0  0
    2.2870    3.6330    0.6440 C   0  0
    1.3380   -0.1080    1.2870 C   0  0  3  0  0  0
    2.1020    2.3100    1.4180 C   0  0
    2.6740   -0.4180    1.6150 O   0  0
    0.7890   -1.1680    0.4000 C   0  0
   -0.3110   -1.9360    0.8220 C   0  0
    1.3650   -1.4020   -0.8590 C   0  0
   -0.8340   -2.9380   -0.0140 C   0  0
    0.8480   -2.4040   -1.6970 C   0  0
   -1.8650   -3.6560    0.3850 O   0  0
   -0.2540   -3.1740   -1.2760 C   0  0
    1.3930   -2.6210   -2.8770 O   0  0
   -2.4120   -3.3790    1.6660 C   0  0
   -0.7420   -4.1130   -2.0610 O   0  0
    2.4590   -1.7760   -3.2830 C   0  0
   -1.8540   -4.8620   -1.5920 C   0  0
   -1.1890    5.0610   -0.0960 H   0  0
   -3.1640    1.9220    1.9780 H   0  0
   -2.9920    1.4020    0.3200 H   0  0
   -0.7600    1.9260    2.3340 H   0  0
   -1.1910    0.4020    1.6070 H   0  0
    1.5100    3.4220   -1.3610 H   0  0
    1.0960    4.9430   -0.6170 H   0  0
    1.8650    1.1440   -0.3320 H   0  0
    0.2050    0.9370   -1.7400 H   0  0
   -1.4020    1.6130   -1.4880 H   0  0
   -0.9800    0.0550   -0.7810 H   0  0
    2.2990    4.4590    1.3570 H   0  0
    3.2640    3.6440    0.1600 H   0  0
    0.7620   -0.0720    2.2110 H   0  0
    1.5680    2.5080    2.3500 H   0  0
    3.0780    1.9200    1.7090 H   0  0
    2.6620   -1.2520    2.1070 H   0  0
   -0.7580   -1.7580    1.7890 H   0  0
    2.2110   -0.8150   -1.1860 H   0  0
   -3.2640   -3.9850    1.9750 H   0  0
   -2.7230   -2.3340    1.6850 H   0  0
   -1.6250   -3.5080    2.4080 H   0  0
    2.8240   -2.1250   -4.2500 H   0  0
    2.1110   -0.7440   -3.2460 H   0  0
    3.2720   -1.8790   -2.5630 H   0  0
   -2.2380   -5.6330   -2.2600 H   0  0
   -2.6660   -4.1700   -1.3790 H   0  0
   -1.5700   -5.3440   -0.6560 H   0  0
  1  2  2  0
  2  3  1  0
  2  4  1  0
  3  5  2  0
  4  6  1  0
  5  7  1  0
  5  8  1  0
  7  9  1  0
  7 10  1  0
  8 11  1  0
  9 12  1  0
  9 13  1  0
 12 14  1  0
 12 15  1  0
 15 16  2  0
 15 17  1  0
 16 18  1  0
 17 19  2  0
 18 20  1  0
 18 21  2  0
 19 22  1  0
 20 23  1  0
 21 24  1  0
 22 25  1  0
 24 26  1  0
  6  7  1  0
 11 13  1  0
 19 21  1  0
  3 27  1  0
  4 28  1  0
  4 29  1  0
  6 30  1  0
  6 31  1  0
  8 32  1  0
  8 33  1  0
  9 34  1  0
 10 35  1  0
 10 36  1  0
 10 37  1  0
 11 38  1  0
 11 39  1  0
 12 40  1  0
 13 41  1  0
 13 42  1  0
 14 43  1  0
 16 44  1  0
 17 45  1  0
 23 46  1  0
 23 47  1  0
 23 48  1  0
 25 49  1  0
 25 50  1  0
 25 51  1  0
 26 52  1  0
 26 53  1  0
 26 54  1  0
M  END
> <Name>
CHEMBL182853

> <IC50 nM>
2000

> <Molecule_ChEMBL_ID>
CHEMBL182853

> <Smiles>
COc1cc(C(O)C2CCCC3=CC(=O)CCC32C)cc(OC)c1OC

$$$$
CHEMBL193986
  SciTegic08162514323D

 49 53  0  0  1  0            999 V2000
    6.8110    0.1410   -4.0220 F   0  0
    5.8790   -0.1700   -3.1230 C   0  0
    5.2110    0.8480   -2.4220 C   0  0
    5.5630   -1.5180   -2.8750 C   0  0
    4.2250    0.5220   -1.4750 C   0  0
    4.5780   -1.8460   -1.9280 C   0  0
    3.9060   -0.8280   -1.2250 C   0  0
    2.9550   -1.1450   -0.3090 N   0  0
    3.0780   -2.1250    0.6250 N   0  0
    1.7460   -0.5390   -0.1800 C   0  0
    1.9790   -2.2480    1.4200 C   0  0
    1.1800   -1.2480    0.8710 C   0  0
    1.0900    0.5740   -0.8980 C   0  0
   -0.2400   -0.8960    1.3110 C   0  0
   -0.0610    1.0430   -0.3710 C   0  0
   -0.6040    0.5780    0.9670 C   0  0  1  0  0  0
   -0.9610    2.0590   -1.0120 C   0  0
   -2.1170    0.9180    0.8200 C   0  0  1  0  0  0
    0.0310    1.4960    2.0210 C   0  0
   -2.0760    2.2440    0.0230 C   0  0
   -2.7700   -0.0780    0.0160 O   0  0
   -2.7520    1.1450    2.0860 O   0  0
   -4.1760   -0.1660    0.1950 C   0  0  2  0  0  0
   -3.3710    0.0040    2.6540 C   0  0
   -4.4530   -0.5140    1.6780 C   0  0
   -4.7150   -1.2170   -0.7790 C   0  0
    5.4510    1.8850   -2.6090 H   0  0
    6.0740   -2.3030   -3.4120 H   0  0
    3.7230    1.3180   -0.9450 H   0  0
    4.3480   -2.8890   -1.7520 H   0  0
    1.8180   -2.9430    2.2340 H   0  0
    1.5100    0.9860   -1.8050 H   0  0
   -0.9060   -1.5940    0.8010 H   0  0
   -0.3590   -1.0860    2.3790 H   0  0
   -1.3520    1.6640   -1.9380 H   0  0
   -0.4380    2.9810   -1.2210 H   0  0
   -0.1600    2.5490    1.8110 H   0  0
    1.1110    1.3540    2.0550 H   0  0
   -0.3650    1.2770    3.0120 H   0  0
   -3.0220    2.4960   -0.4390 H   0  0
   -1.8180    3.0700    0.6740 H   0  0
   -4.6040    0.8070   -0.0510 H   0  0
   -3.8010    0.2730    3.6190 H   0  0
   -2.6080   -0.7540    2.8300 H   0  0
   -4.5450   -1.5920    1.8070 H   0  0
   -5.4240   -0.0980    1.9510 H   0  0
   -4.4980   -0.9340   -1.8090 H   0  0
   -4.2740   -2.1910   -0.5780 H   0  0
   -5.7970   -1.3120   -0.6820 H   0  0
  1  2  1  0
  2  3  2  0
  2  4  1  0
  3  5  1  0
  4  6  2  0
  5  7  2  0
  7  8  1  0
  8  9  1  0
  8 10  1  0
  9 11  2  0
 10 12  2  0
 10 13  1  0
 12 14  1  0
 13 15  2  0
 14 16  1  0
 15 17  1  0
 16 18  1  0
 16 19  1  0
 17 20  1  0
 18 21  1  0
 18 22  1  0
 21 23  1  0
 22 24  1  0
 23 25  1  0
 23 26  1  0
  6  7  1  0
 11 12  1  0
 15 16  1  0
 18 20  1  0
 24 25  1  0
  3 27  1  0
  4 28  1  0
  5 29  1  0
  6 30  1  0
 11 31  1  0
 13 32  1  0
 14 33  1  0
 14 34  1  0
 17 35  1  0
 17 36  1  0
 19 37  1  0
 19 38  1  0
 19 39  1  0
 20 40  1  0
 20 41  1  0
 23 42  1  0
 24 43  1  0
 24 44  1  0
 25 45  1  0
 25 46  1  0
 26 47  1  0
 26 48  1  0
 26 49  1  0
M  END
> <Name>
CHEMBL193986

> <IC50 nM>
21

> <Molecule_ChEMBL_ID>
CHEMBL193986

> <Smiles>
C[C@H]1CCO[C@]2(CCC3=Cc4c(cnn4-c4ccc(F)cc4)C[C@@]32C)O1

$$$$
CHEMBL182013
  SciTegic08162514323D

 83 86  0  0  1  0            999 V2000
   -1.4100    5.0080    3.9300 S   0  0
   -2.3500    5.2540    2.8500 O   0  0
   -0.9450    3.6330    3.9790 O   0  0
   -0.1190    5.9510    3.6760 N   0  0
   -2.1990    5.4060    5.4830 C   0  0
    1.1330    5.3950    3.6020 C   0  0
    1.5390    4.6450    2.4710 C   0  0
    2.0240    5.5800    4.6760 C   0  0
    2.8400    4.0860    2.4320 C   0  0
    0.6000    4.4430    1.3260 C   0  0
    3.3110    5.0230    4.6330 C   0  0
    3.2680    3.3520    1.3560 N   0  0
    3.7190    4.2790    3.5160 C   0  0
    3.4140    3.9710    0.0290 C   0  0
    3.5900    1.9280    1.5160 C   0  0
    4.5940    4.8750   -0.0270 C   0  0
    2.3750    1.0760    1.4060 C   0  0
    4.4400    6.2640    0.1500 C   0  0
    5.8730    4.3360   -0.2600 C   0  0
    1.5350    0.9020    2.5200 C   0  0
    2.0670    0.4450    0.1900 C   0  0
    3.2340    6.7890    0.3670 F   0  0
    5.5630    7.1070    0.0980 C   0  0
    6.9940    5.1800   -0.3120 C   0  0
    0.3870    0.0980    2.4140 C   0  0
    0.9180   -0.3590    0.0860 C   0  0
    6.8400    6.5660   -0.1330 C   0  0
    0.0760   -0.5350    1.1970 C   0  0
    7.9040    7.3650   -0.1820 F   0  0
   -1.0000   -1.2890    1.1000 O   0  0
   -0.9200   -2.3930    0.3850 C   0  0
   -1.9980   -2.7910   -0.4260 C   0  0
    0.2460   -3.1780    0.4280 C   0  0
   -1.9160   -3.9690   -1.1890 C   0  0
    0.3320   -4.3560   -0.3340 C   0  0
   -2.9280   -4.3380   -1.9470 O   0  0
   -0.7480   -4.7500   -1.1430 C   0  0
   -2.7950   -5.5350   -2.7010 C   0  0
   -4.0740   -5.7770   -3.5040 C   0  0  1  0  0  0
   -4.2360   -4.7050   -4.4060 O   0  0
   -4.0290   -7.0760   -4.3070 C   0  0
   -5.4220   -7.6060   -4.6520 C   0  0  1  0  0  0
   -5.9800   -6.7680   -5.6390 O   0  0
   -5.3930   -9.0330   -5.1970 C   0  0
   -6.7720   -9.5760   -5.4610 C   0  0
   -7.7560   -8.9920   -5.0680 O   0  0
   -6.8090  -10.7170   -6.1450 O   0  0
   -0.2320    6.9400    3.5740 H   0  0
   -3.0780    4.8010    5.7090 H   0  0
   -2.5080    6.4510    5.4770 H   0  0
   -1.4860    5.2730    6.2970 H   0  0
    1.7330    6.1500    5.5470 H   0  0
   -0.4220    4.3610    1.7010 H   0  0
    0.7210    5.2540    0.6080 H   0  0
    0.8420    3.5100    0.8160 H   0  0
    3.9900    5.1700    5.4590 H   0  0
    4.7150    3.8610    3.5020 H   0  0
    2.5120    4.5350   -0.2050 H   0  0
    3.5200    3.1880   -0.7230 H   0  0
    4.0550    1.7730    2.4900 H   0  0
    4.3090    1.6330    0.7520 H   0  0
    5.9980    3.2710   -0.3980 H   0  0
    1.7660    1.3870    3.4570 H   0  0
    2.7090    0.5740   -0.6700 H   0  0
    5.4450    8.1720    0.2340 H   0  0
    7.9730    4.7600   -0.4920 H   0  0
   -0.2560   -0.0310    3.2720 H   0  0
    0.6860   -0.8420   -0.8520 H   0  0
   -2.8950   -2.1900   -0.4610 H   0  0
    1.0760   -2.8770    1.0490 H   0  0
    1.2290   -4.9570   -0.2990 H   0  0
   -0.6800   -5.6540   -1.7270 H   0  0
   -2.6150   -6.3560   -2.0080 H   0  0
   -1.9370   -5.4280   -3.3650 H   0  0
   -4.9220   -5.7760   -2.8180 H   0  0
   -4.5330   -3.9400   -3.8910 H   0  0
   -3.4490   -7.8340   -3.7810 H   0  0
   -3.4300   -6.9530   -5.2090 H   0  0
   -6.0490   -7.5450   -3.7620 H   0  0
   -6.4470   -6.0550   -5.1780 H   0  0
   -4.8980   -9.6370   -4.4360 H   0  0
   -4.7930   -9.0860   -6.1050 H   0  0
   -7.6640  -11.1170   -6.3480 H   0  0
  1  2  2  0
  1  3  2  0
  1  4  1  0
  1  5  1  0
  4  6  1  0
  6  7  2  0
  6  8  1  0
  7  9  1  0
  7 10  1  0
  8 11  2  0
  9 12  1  0
  9 13  2  0
 12 14  1  0
 12 15  1  0
 14 16  1  0
 15 17  1  0
 16 18  2  0
 16 19  1  0
 17 20  2  0
 17 21  1  0
 18 22  1  0
 18 23  1  0
 19 24  2  0
 20 25  1  0
 21 26  2  0
 23 27  2  0
 25 28  2  0
 27 29  1  0
 28 30  1  0
 30 31  1  0
 31 32  2  0
 31 33  1  0
 32 34  1  0
 33 35  2  0
 34 36  1  0
 34 37  2  0
 36 38  1  0
 38 39  1  0
 39 40  1  0
 39 41  1  0
 41 42  1  0
 42 43  1  0
 42 44  1  0
 44 45  1  0
 45 46  2  0
 45 47  1  0
 11 13  1  0
 24 27  1  0
 26 28  1  0
 35 37  1  0
  4 48  1  0
  5 49  1  0
  5 50  1  0
  5 51  1  0
  8 52  1  0
 10 53  1  0
 10 54  1  0
 10 55  1  0
 11 56  1  0
 13 57  1  0
 14 58  1  0
 14 59  1  0
 15 60  1  0
 15 61  1  0
 19 62  1  0
 20 63  1  0
 21 64  1  0
 23 65  1  0
 24 66  1  0
 25 67  1  0
 26 68  1  0
 32 69  1  0
 33 70  1  0
 35 71  1  0
 37 72  1  0
 38 73  1  0
 38 74  1  0
 39 75  1  0
 40 76  1  0
 41 77  1  0
 41 78  1  0
 42 79  1  0
 43 80  1  0
 44 81  1  0
 44 82  1  0
 47 83  1  0
M  END
> <Name>
CHEMBL182013

> <IC50 nM>
15

> <Molecule_ChEMBL_ID>
CHEMBL182013

> <Smiles>
Cc1c(NS(C)(=O)=O)cccc1N(Cc1ccc(Oc2cccc(OC[C@@H](O)C[C@@H](O)CC(=O)O)c2)cc1)Cc1ccc(F)cc1F

$$$$
CHEMBL5269349
  SciTegic08162514323D

 85 90  0  0  0  0            999 V2000
    3.0190    0.0720   -3.6600 S   0  0
    1.9280    0.2210   -2.3630 C   0  0
    2.4960   -1.4880   -4.0210 C   0  0
    1.1720   -0.9120   -2.2090 N   0  0
    1.8100    1.4240   -1.5080 C   0  0
    1.4840   -1.8770   -3.1370 C   0  0
    0.5600    1.8010   -0.9770 C   0  0
    2.9530    2.1930   -1.2280 C   0  0
    0.7620   -3.2050   -3.1370 C   0  0
   -0.5180    1.0860   -1.2320 O   0  0
    0.4650    2.9450   -0.1660 C   0  0
    2.8550    3.3360   -0.4180 C   0  0
    1.1660   -4.0570   -1.9340 C   0  0
   -1.7660    1.5760   -0.7690 C   0  0
    1.6090    3.7170    0.1150 C   0  0
    0.4710   -5.3710   -1.9340 C   0  0
   -2.8830    0.6370   -1.2230 C   0  0
    1.5120    4.8200    0.8980 N   0  0
    0.9710   -6.4320   -2.7070 C   0  0
   -0.6900   -5.5530   -1.1600 C   0  0
   -4.1970    1.0760   -0.7660 N   0  0
    0.3690    5.2580    1.4490 N   0  0
    2.5530    5.6350    1.2320 C   0  0
    0.3120   -7.6740   -2.7090 C   0  0
   -1.3480   -6.7950   -1.1580 C   0  0
   -4.8970    2.1800   -1.2460 C   0  0
   -4.9550    0.3950    0.2750 C   0  0
    0.6500    6.3610    2.1500 N   0  3
    2.0160    6.6540    2.0530 C   0  0
   -0.8500   -7.8570   -1.9340 C   0  0
   -4.5060    2.9280   -2.1110 O   0  0
   -6.1190    2.3070   -0.5820 N   0  0
   -6.2460    1.2230    0.3970 C   0  0
   -0.3830    7.1060    2.8870 C   0  0
    2.7050    7.8300    2.7130 C   0  0
   -1.5310   -9.1450   -1.9340 C   0  0
    2.9980    7.5450    4.1880 C   0  0
   -2.9380   -9.1970   -1.9340 C   0  0
   -0.7850  -10.3400   -1.9340 C   0  0
    4.0120    6.4160    4.3790 C   0  0
   -3.5940  -10.4410   -1.9340 C   0  0
   -1.4430  -11.5800   -1.9340 C   0  0
    4.3520    6.1740    5.8500 C   0  0
   -2.8480  -11.6310   -1.9340 C   0  0
    5.3220    5.1000    5.9770 N   0  0
    2.8940   -2.0940   -4.8260 H   0  0
    3.9140    1.9060   -1.6350 H   0  0
    0.9690   -3.7320   -4.0680 H   0  0
   -0.3150   -3.0330   -3.1430 H   0  0
   -0.5000    3.2230    0.2360 H   0  0
    3.7460    3.9140   -0.2130 H   0  0
    0.9530   -3.5330   -1.0020 H   0  0
    2.2440   -4.2170   -1.9200 H   0  0
   -1.9140    2.5760   -1.1800 H   0  0
   -1.7290    1.6330    0.3180 H   0  0
   -2.6970   -0.3790   -0.8730 H   0  0
   -2.8890    0.5410   -2.3090 H   0  0
    1.8590   -6.2970   -3.3050 H   0  0
   -1.0780   -4.7400   -0.5620 H   0  0
    3.5820    5.5060    0.9200 H   0  0
    0.7090   -8.4810   -3.3110 H   0  0
   -2.2380   -6.9180   -0.5590 H   0  0
   -5.1580   -0.6270   -0.0190 H   0  0
   -4.3950    0.3830    1.1990 H   0  0
   -6.8010    3.0200   -0.7500 H   0  0
   -7.1190    0.6270    0.1760 H   0  0
   -6.3600    1.6350    1.3890 H   0  0
   -1.3580    6.6600    2.6930 H   0  0
   -0.1290    7.1230    3.9470 H   0  0
   -0.4100    8.1370    2.5330 H   0  0
    2.0840    8.7210    2.6090 H   0  0
    3.6250    8.0610    2.1760 H   0  0
    2.0760    7.3300    4.7290 H   0  0
    3.3260    8.4490    4.6970 H   0  0
   -3.5270   -8.2910   -1.9340 H   0  0
    0.2970  -10.3180   -1.9340 H   0  0
    4.9160    6.6100    3.8010 H   0  0
    3.6620    5.4980    3.9060 H   0  0
   -4.6740  -10.4810   -1.9340 H   0  0
   -0.8710  -12.4960   -1.9340 H   0  0
    3.4550    5.9200    6.4160 H   0  0
    4.7500    7.0780    6.3090 H   0  0
   -3.3540  -12.5860   -1.9340 H   0  0
    5.5410    4.9790    6.9770 H   0  0
    4.8890    4.2310    5.6350 H   0  0
  1  2  1  0
  1  3  1  0
  2  4  2  0
  2  5  1  0
  3  6  2  0
  5  7  2  0
  5  8  1  0
  6  9  1  0
  7 10  1  0
  7 11  1  0
  8 12  2  0
  9 13  1  0
 10 14  1  0
 11 15  2  0
 13 16  1  0
 14 17  1  0
 15 18  1  0
 16 19  2  0
 16 20  1  0
 17 21  1  0
 18 22  1  0
 18 23  1  0
 19 24  1  0
 20 25  2  0
 21 26  1  0
 21 27  1  0
 22 28  2  0
 23 29  2  0
 24 30  2  0
 26 31  2  0
 26 32  1  0
 27 33  1  0
 28 34  1  0
 29 35  1  0
 30 36  1  0
 35 37  1  0
 36 38  2  0
 36 39  1  0
 37 40  1  0
 38 41  1  0
 39 42  2  0
 40 43  1  0
 41 44  2  0
 43 45  1  0
  4  6  1  0
 12 15  1  0
 25 30  1  0
 28 29  1  0
 32 33  1  0
 42 44  1  0
  3 46  1  0
  8 47  1  0
  9 48  1  0
  9 49  1  0
 11 50  1  0
 12 51  1  0
 13 52  1  0
 13 53  1  0
 14 54  1  0
 14 55  1  0
 17 56  1  0
 17 57  1  0
 19 58  1  0
 20 59  1  0
 23 60  1  0
 24 61  1  0
 25 62  1  0
 27 63  1  0
 27 64  1  0
 32 65  1  0
 33 66  1  0
 33 67  1  0
 34 68  1  0
 34 69  1  0
 34 70  1  0
 35 71  1  0
 35 72  1  0
 37 73  1  0
 37 74  1  0
 38 75  1  0
 39 76  1  0
 40 77  1  0
 40 78  1  0
 41 79  1  0
 42 80  1  0
 43 81  1  0
 43 82  1  0
 44 83  1  0
 45 84  1  0
 45 85  1  0
M  CHG  1  28   1
M  END
> <Name>
CHEMBL5269349

> <IC50 nM>
75000

> <Molecule_ChEMBL_ID>
CHEMBL5269349

> <Smiles>
C[n+]1nn(-c2ccc(-c3nc(CCc4ccc(-c5ccccc5)cc4)cs3)c(OCCN3CCNC3=O)c2)cc1CCCCN.O=C(O)C(F)(F)F.O=S(=O)([O-])C(F)(F)F

$$$$
CHEMBL5275882
  SciTegic08162514323D

 55 58  0  0  0  0            999 V2000
    1.2340   -2.0530    0.0720 S   0  0
    0.4390   -2.2250    1.2750 O   0  0
    0.5820   -2.5570   -1.1230 O   0  0
    1.4670   -0.4630   -0.1330 N   0  0
    2.7250   -2.9040    0.2790 C   0  0
    0.4140    0.3570   -0.2640 C   0  0
    3.2640   -3.6330   -0.7970 C   0  0
    3.3910   -2.8650    1.5180 C   0  0
   -0.9020   -0.1600   -0.2750 C   0  0
    0.6060    1.7520   -0.3890 C   0  0
    2.6390   -3.6680   -1.9570 O   0  0
    4.4750   -4.3240   -0.6310 C   0  0
    4.6060   -3.5630    1.6800 C   0  0
    2.8090   -2.0920    2.6480 C   0  0
   -2.0230    0.6970   -0.4140 C   0  0
   -0.5040    2.6190   -0.5250 C   0  0
    3.2910   -4.3070   -3.0470 C   0  0
    5.1450   -4.2910    0.6030 C   0  0
    5.3280   -3.5370    2.9800 C   0  0
   -1.8360    2.1110   -0.5390 C   0  0
   -3.3810    0.0960   -0.4200 C   0  0
   -2.9140    2.9510   -0.6720 N   0  0
   -4.3970    0.9820   -1.1470 C   0  0
   -2.7680    4.3090   -0.8280 C   0  0
   -4.3110    2.4300   -0.6430 C   0  0
   -1.7660    4.7640   -1.3280 O   0  0
   -3.8280    5.1990   -0.3770 C   0  0
   -4.0550    6.3340   -1.0960 O   0  0
   -4.6800    5.0590    0.7210 C   0  0
   -5.0860    6.9320   -0.4260 C   0  0
   -5.4980    6.1880    0.6870 C   0  0
    2.3970   -0.0940   -0.1640 H   0  0
   -1.0660   -1.2270   -0.1780 H   0  0
    1.6020    2.1760   -0.3850 H   0  0
    4.8930   -4.8850   -1.4530 H   0  0
    3.5100   -1.8850    3.4570 H   0  0
    1.9670   -2.6410    3.0700 H   0  0
    2.4360   -1.1370    2.2790 H   0  0
   -0.2990    3.6760   -0.6170 H   0  0
    2.6350   -4.2520   -3.9160 H   0  0
    4.2790   -3.8630   -3.1600 H   0  0
    3.4240   -5.3570   -2.7930 H   0  0
    6.0740   -4.8260    0.7230 H   0  0
    6.1930   -4.1990    3.0250 H   0  0
    4.6470   -3.8240    3.7810 H   0  0
    5.6740   -2.5230    3.1840 H   0  0
   -3.3650   -0.8910   -0.8890 H   0  0
   -3.6950   -0.0530    0.6150 H   0  0
   -4.2070    0.9570   -2.2230 H   0  0
   -5.4060    0.5940   -1.0060 H   0  0
   -4.9590    3.0630   -1.2520 H   0  0
   -4.6840    2.4880    0.3810 H   0  0
   -4.7010    4.2520    1.4410 H   0  0
   -5.5230    7.8710   -0.7330 H   0  0
   -6.2890    6.4400    1.3790 H   0  0
  1  2  2  0
  1  3  2  0
  1  4  1  0
  1  5  1  0
  4  6  1  0
  5  7  2  0
  5  8  1  0
  6  9  2  0
  6 10  1  0
  7 11  1  0
  7 12  1  0
  8 13  2  0
  8 14  1  0
  9 15  1  0
 10 16  2  0
 11 17  1  0
 12 18  2  0
 13 19  1  0
 15 20  2  0
 15 21  1  0
 20 22  1  0
 21 23  1  0
 22 24  1  0
 22 25  1  0
 24 26  2  0
 24 27  1  0
 27 28  1  0
 27 29  2  0
 28 30  1  0
 29 31  1  0
 13 18  1  0
 16 20  1  0
 23 25  1  0
 30 31  2  0
  4 32  1  0
  9 33  1  0
 10 34  1  0
 12 35  1  0
 14 36  1  0
 14 37  1  0
 14 38  1  0
 16 39  1  0
 17 40  1  0
 17 41  1  0
 17 42  1  0
 18 43  1  0
 19 44  1  0
 19 45  1  0
 19 46  1  0
 21 47  1  0
 21 48  1  0
 23 49  1  0
 23 50  1  0
 25 51  1  0
 25 52  1  0
 29 53  1  0
 30 54  1  0
 31 55  1  0
M  END
> <Name>
CHEMBL5275882

> <IC50 nM>
100

> <Molecule_ChEMBL_ID>
CHEMBL5275882

> <Smiles>
COc1ccc(C)c(C)c1S(=O)(=O)Nc1ccc2c(c1)CCCN2C(=O)c1ccco1

$$$$
CHEMBL5291380
  SciTegic08162514323D

 53 55  0  0  0  0            999 V2000
    7.0100   -2.6760   -0.9120 Cl  0  0
    5.5740   -2.6520    0.0330 C   0  0
    5.3480   -3.6110    1.0470 C   0  0
    4.6090   -1.6580   -0.2130 C   0  0
    4.1620   -3.5610    1.8030 C   0  0
    6.3420   -4.6820    1.3360 C   0  0
    3.4280   -1.6170    0.5470 C   0  0
    3.2010   -2.5660    1.5570 C   0  0
    2.2540   -0.3910    0.2320 S   0  0
    2.0940   -2.5270    2.2710 O   0  0
    2.5940    0.2560   -1.0230 O   0  0
    2.2340    0.5230    1.3610 O   0  0
    0.7620   -1.0040    0.0780 N   0  0
    1.8790   -3.5570    3.2250 C   0  0
   -0.2890   -0.1840   -0.0530 C   0  0
   -1.6050   -0.7010   -0.0640 C   0  0
   -0.1000    1.2110   -0.1800 C   0  0
   -2.7270    0.1560   -0.2030 C   0  0
   -1.2070    2.0760   -0.3140 C   0  0
   -2.5390    1.5700   -0.3300 C   0  0
   -4.0860   -0.4450   -0.2070 C   0  0
   -3.6190    2.4100   -0.4630 N   0  0
   -5.0980    0.4430   -0.9410 C   0  0
   -3.4730    3.7680   -0.6250 C   0  0
   -5.0140    1.8870   -0.4300 C   0  0
   -4.0250    4.5350    0.1270 O   0  0
   -2.6950    4.2400   -1.6450 N   0  0
   -2.2290    5.6330   -1.6760 C   0  0
   -2.3160    3.3360   -2.7400 C   0  0
    4.7680   -0.9180   -0.9860 H   0  0
    3.9860   -4.2890    2.5820 H   0  0
    6.0490   -5.3580    2.1410 H   0  0
    7.2930   -4.2290    1.6110 H   0  0
    6.5020   -5.2790    0.4390 H   0  0
    0.6270   -1.9940    0.0780 H   0  0
    0.9510   -3.3440    3.7560 H   0  0
    1.9280   -4.5160    2.7070 H   0  0
    2.6910   -3.5270    3.9490 H   0  0
   -1.7720   -1.7680    0.0310 H   0  0
    0.8960    1.6350   -0.1720 H   0  0
   -1.0020    3.1350   -0.4080 H   0  0
   -4.0700   -1.4340   -0.6700 H   0  0
   -4.4020   -0.5860    0.8260 H   0  0
   -4.9000    0.4200   -2.0140 H   0  0
   -6.1080    0.0530   -0.8070 H   0  0
   -5.6700    2.5220   -1.0290 H   0  0
   -5.3770    1.9380    0.5980 H   0  0
   -2.5180    6.2310   -0.8130 H   0  0
   -2.6210    6.1230   -2.5660 H   0  0
   -1.1410    5.6450   -1.7400 H   0  0
   -3.0270    2.5350   -2.9400 H   0  0
   -1.3540    2.8790   -2.5120 H   0  0
   -2.1990    3.9140   -3.6580 H   0  0
  1  2  1  0
  2  3  2  0
  2  4  1  0
  3  5  1  0
  3  6  1  0
  4  7  2  0
  5  8  2  0
  7  9  1  0
  8 10  1  0
  9 11  2  0
  9 12  2  0
  9 13  1  0
 10 14  1  0
 13 15  1  0
 15 16  2  0
 15 17  1  0
 16 18  1  0
 17 19  2  0
 18 20  2  0
 18 21  1  0
 20 22  1  0
 21 23  1  0
 22 24  1  0
 22 25  1  0
 24 26  2  0
 24 27  1  0
 27 28  1  0
 27 29  1  0
  7  8  1  0
 19 20  1  0
 23 25  1  0
  4 30  1  0
  5 31  1  0
  6 32  1  0
  6 33  1  0
  6 34  1  0
 13 35  1  0
 14 36  1  0
 14 37  1  0
 14 38  1  0
 16 39  1  0
 17 40  1  0
 19 41  1  0
 21 42  1  0
 21 43  1  0
 23 44  1  0
 23 45  1  0
 25 46  1  0
 25 47  1  0
 28 48  1  0
 28 49  1  0
 28 50  1  0
 29 51  1  0
 29 52  1  0
 29 53  1  0
M  END
> <Name>
CHEMBL5291380

> <IC50 nM>
50

> <Molecule_ChEMBL_ID>
CHEMBL5291380

> <Smiles>
COc1cc(C)c(Cl)cc1S(=O)(=O)Nc1ccc2c(c1)CCCN2C(=O)N(C)C

$$$$
CHEMBL5275427
  SciTegic08162514323D

 58 61  0  0  0  0            999 V2000
    6.0350   -3.8770   -1.5900 Cl  0  0
    5.0290   -3.5180   -0.2420 C   0  0
    5.1640   -4.2130    0.9800 C   0  0
    4.0530   -2.5120   -0.3670 C   0  0
    4.3260   -3.8910    2.0640 C   0  0
    6.1830   -5.2850    1.1520 C   0  0
    3.2190   -2.1990    0.7210 C   0  0
    3.3510   -2.8870    1.9390 C   0  0
    2.0230   -0.9630    0.5530 S   0  0
    2.5720   -2.5920    2.9590 O   0  0
    2.2280   -0.3010   -0.7250 O   0  0
    2.1330   -0.0660    1.6880 O   0  0
    0.5210   -1.5680    0.5510 N   0  0
    2.6830   -3.3830    4.1330 C   0  0
   -0.5310   -0.7480    0.4220 C   0  0
   -1.8480   -1.2660    0.4080 C   0  0
   -0.3400    0.6480    0.2950 C   0  0
   -2.9690   -0.4080    0.2700 C   0  0
   -1.4470    1.5140    0.1580 C   0  0
   -2.7810    1.0080    0.1430 C   0  0
   -4.3280   -1.0080    0.2660 C   0  0
   -3.8600    1.8460    0.0100 N   0  0
   -5.3400   -0.1210   -0.4690 C   0  0
   -3.7130    3.2030   -0.1520 C   0  0
   -5.2560    1.3220    0.0430 C   0  0
   -4.4260    3.9710    0.4530 O   0  0
   -2.6600    3.7070   -1.0860 C   0  0
   -2.0000    4.9240   -0.8320 C   0  0
   -2.3280    2.9550   -2.2290 C   0  0
   -2.3030    5.6490    0.2440 F   0  0
   -1.0100    5.3850   -1.7190 C   0  0
   -1.3380    3.4180   -3.1130 C   0  0
   -0.6800    4.6330   -2.8590 C   0  0
    0.3670    5.1230   -3.7970 C   0  0
    3.9330   -1.9730   -1.2950 H   0  0
    4.4300   -4.4180    3.0020 H   0  0
    6.1870   -5.7440    2.1430 H   0  0
    7.1760   -4.8770    0.9730 H   0  0
    6.0080   -6.0720    0.4200 H   0  0
    0.3770   -2.5530    0.6460 H   0  0
    1.9920   -2.9860    4.8770 H   0  0
    2.5450   -4.4280    3.8560 H   0  0
    3.6930   -3.2730    4.5240 H   0  0
   -2.0120   -2.3300    0.5060 H   0  0
    0.6540    1.0720    0.3010 H   0  0
   -1.2420    2.5700    0.0660 H   0  0
   -4.3130   -1.9960   -0.1970 H   0  0
   -4.6450   -1.1480    1.3010 H   0  0
   -5.1410   -0.1450   -1.5410 H   0  0
   -6.3480   -0.5120   -0.3320 H   0  0
   -5.9120    1.9570   -0.5550 H   0  0
   -5.6190    1.3730    1.0700 H   0  0
   -2.8280    2.0200   -2.4320 H   0  0
   -0.5040    6.3200   -1.5230 H   0  0
   -1.0900    2.8360   -3.9880 H   0  0
    0.5470    4.4670   -4.6490 H   0  0
    1.3080    5.2400   -3.2600 H   0  0
    0.0780    6.1000   -4.1840 H   0  0
  1  2  1  0
  2  3  2  0
  2  4  1  0
  3  5  1  0
  3  6  1  0
  4  7  2  0
  5  8  2  0
  7  9  1  0
  8 10  1  0
  9 11  2  0
  9 12  2  0
  9 13  1  0
 10 14  1  0
 13 15  1  0
 15 16  2  0
 15 17  1  0
 16 18  1  0
 17 19  2  0
 18 20  2  0
 18 21  1  0
 20 22  1  0
 21 23  1  0
 22 24  1  0
 22 25  1  0
 24 26  2  0
 24 27  1  0
 27 28  2  0
 27 29  1  0
 28 30  1  0
 28 31  1  0
 29 32  2  0
 31 33  2  0
 33 34  1  0
  7  8  1  0
 19 20  1  0
 23 25  1  0
 32 33  1  0
  4 35  1  0
  5 36  1  0
  6 37  1  0
  6 38  1  0
  6 39  1  0
 13 40  1  0
 14 41  1  0
 14 42  1  0
 14 43  1  0
 16 44  1  0
 17 45  1  0
 19 46  1  0
 21 47  1  0
 21 48  1  0
 23 49  1  0
 23 50  1  0
 25 51  1  0
 25 52  1  0
 29 53  1  0
 31 54  1  0
 32 55  1  0
 34 56  1  0
 34 57  1  0
 34 58  1  0
M  END
> <Name>
CHEMBL5275427

> <IC50 nM>
10000

> <Molecule_ChEMBL_ID>
CHEMBL5275427

> <Smiles>
COc1cc(C)c(Cl)cc1S(=O)(=O)Nc1ccc2c(c1)CCCN2C(=O)c1ccc(C)cc1F

$$$$
CHEMBL5285205
  SciTegic08162514323D

 58 62  0  0  0  0            999 V2000
    3.5470   -1.2400   -0.0470 S   0  0
    4.5960   -0.9040    0.9000 O   0  0
    3.7270   -2.5410   -0.6640 O   0  0
    2.1480   -1.2750    0.7700 N   0  0
    3.5390   -0.0450   -1.2930 C   0  0
    2.1070   -2.4820    1.8500 S   0  0
    1.0960   -0.4550    0.6390 C   0  0
    2.7210   -0.2150   -2.4220 C   0  0
    4.3520    1.0960   -1.1740 C   0  0
    3.4730   -2.7340    2.2750 O   0  0
    1.2360   -2.0660    2.9360 O   0  0
    1.4730   -3.9360    1.1720 C   0  0
   -0.2210   -0.9750    0.6270 C   0  0
    1.2870    0.9400    0.5140 C   0  0
    2.7130    0.7580   -3.4360 C   0  0
    4.3440    2.0680   -2.1900 C   0  0
    0.1290   -4.2850    1.3930 C   0  0
    2.3010   -4.7720    0.4020 C   0  0
   -1.3420   -0.1150    0.4880 C   0  0
    0.1780    1.8050    0.3770 C   0  0
    3.5250    1.9000   -3.3200 C   0  0
   -0.3890   -5.4690    0.8400 C   0  0
    1.7830   -5.9550   -0.1500 C   0  0
   -1.1560    1.2990    0.3630 C   0  0
   -2.7010   -0.7170    0.4820 C   0  0
    0.4390   -6.3050    0.0680 C   0  0
   -2.2340    2.1390    0.2320 N   0  0
   -3.7170    0.1700   -0.2440 C   0  0
   -2.0860    3.4960    0.0760 C   0  0
   -3.6310    1.6150    0.2600 C   0  0
   -1.0900    3.9510   -0.4340 O   0  0
   -3.1470    4.3790    0.5390 C   0  0
   -3.8970    3.9710    1.6020 O   0  0
   -3.5250    5.6270    0.0390 C   0  0
   -4.7790    5.0000    1.7770 C   0  0
   -4.5880    6.0290    0.8480 C   0  0
    2.0960   -1.0920   -2.5120 H   0  0
    4.9810    1.2270   -0.3070 H   0  0
   -0.3850   -2.0390    0.7250 H   0  0
    2.2810    1.3630    0.5200 H   0  0
    2.0840    0.6290   -4.3050 H   0  0
    4.9690    2.9450   -2.1020 H   0  0
   -0.5080   -3.6450    1.9840 H   0  0
    3.3340   -4.5040    0.2320 H   0  0
    0.3830    2.8630    0.2850 H   0  0
    3.5220    2.6490   -4.1000 H   0  0
   -1.4200   -5.7380    1.0080 H   0  0
    2.4180   -6.5980   -0.7420 H   0  0
   -2.6840   -1.7030    0.0140 H   0  0
   -3.0160   -0.8650    1.5180 H   0  0
    0.0430   -7.2170   -0.3560 H   0  0
   -3.5250    0.1430   -1.3180 H   0  0
   -4.7250   -0.2190   -0.1040 H   0  0
   -4.2770    2.2480   -0.3500 H   0  0
   -4.0020    1.6760    1.2830 H   0  0
   -3.0900    6.1660   -0.7930 H   0  0
   -5.5350    5.0040    2.5530 H   0  0
   -5.1520    6.9490    0.7710 H   0  0
  1  2  2  0
  1  3  2  0
  1  4  1  0
  1  5  1  0
  4  6  1  0
  4  7  1  0
  5  8  2  0
  5  9  1  0
  6 10  2  0
  6 11  2  0
  6 12  1  0
  7 13  2  0
  7 14  1  0
  8 15  1  0
  9 16  2  0
 12 17  2  0
 12 18  1  0
 13 19  1  0
 14 20  2  0
 15 21  2  0
 17 22  1  0
 18 23  2  0
 19 24  2  0
 19 25  1  0
 22 26  2  0
 24 27  1  0
 25 28  1  0
 27 29  1  0
 27 30  1  0
 29 31  2  0
 29 32  1  0
 32 33  1  0
 32 34  2  0
 33 35  1  0
 34 36  1  0
 16 21  1  0
 20 24  1  0
 23 26  1  0
 28 30  1  0
 35 36  2  0
  8 37  1  0
  9 38  1  0
 13 39  1  0
 14 40  1  0
 15 41  1  0
 16 42  1  0
 17 43  1  0
 18 44  1  0
 20 45  1  0
 21 46  1  0
 22 47  1  0
 23 48  1  0
 25 49  1  0
 25 50  1  0
 26 51  1  0
 28 52  1  0
 28 53  1  0
 30 54  1  0
 30 55  1  0
 34 56  1  0
 35 57  1  0
 36 58  1  0
M  END
> <Name>
CHEMBL5285205

> <IC50 nM>
620

> <Molecule_ChEMBL_ID>
CHEMBL5285205

> <Smiles>
O=C(c1ccco1)N1CCCc2cc(N(S(=O)(=O)c3ccccc3)S(=O)(=O)c3ccccc3)ccc21

$$$$
CHEMBL5283280
  SciTegic08162514323D

 56 60  0  0  0  0            999 V2000
    2.9260   -0.3120   -0.2870 S   0  0
    2.7560    0.6680   -1.3460 O   0  0
    3.7070    0.1840    0.8320 O   0  0
    1.4530   -0.6850    0.2720 N   0  0
    3.7360   -1.6870   -0.9470 C   0  0
    1.4490   -2.0880    1.0840 S   0  0
    0.3160    0.0120    0.1350 C   0  0
    5.0390   -2.0120   -0.5270 C   0  0
    3.0960   -2.4900   -1.9080 C   0  0
    0.3400   -2.0470    2.0220 O   0  0
    1.3340   -3.1560    0.1070 O   0  0
    2.9080   -2.3220    1.9770 C   0  0
   -0.9320   -0.6500    0.0840 C   0  0
    0.3500    1.4220    0.0370 C   0  0
    5.6990   -3.0940   -1.0350 N   0  0
    3.7830   -3.6020   -2.4240 C   0  0
    3.7310   -3.4340    1.7130 C   0  0
    3.2810   -1.4040    2.9730 C   0  0
   -2.1410    0.0760   -0.0600 C   0  0
   -0.8460    2.1580   -0.1070 C   0  0
    5.0880   -3.8810   -1.9690 C   0  0
    4.8870   -3.6390    2.4080 N   0  0
    4.4750   -1.6250    3.6820 C   0  0
   -2.1130    1.5060   -0.1580 C   0  0
   -3.4220   -0.6740   -0.1110 C   0  0
    5.2620   -2.7540    3.3770 C   0  0
   -3.2790    2.2210   -0.2970 N   0  0
   -4.6040    0.1880    0.3500 C   0  0
   -3.2870    3.5920   -0.3730 C   0  0
   -4.6040    1.5370   -0.3770 C   0  0
   -2.4080    4.2380    0.1450 O   0  0
   -4.3710    4.2560   -1.0840 C   0  0
   -4.9220    3.6110   -2.1500 O   0  0
   -4.9510    5.5000   -0.8280 C   0  0
   -5.8850    4.4810   -2.5820 C   0  0
   -5.9380    5.6450   -1.8050 C   0  0
    5.5310   -1.3940    0.2110 H   0  0
    2.0960   -2.2580   -2.2420 H   0  0
   -0.9750   -1.7300    0.1580 H   0  0
    1.2890    1.9550    0.0700 H   0  0
    3.3170   -4.2360   -3.1620 H   0  0
    3.4430   -4.1390    0.9470 H   0  0
    2.6640   -0.5450    3.1920 H   0  0
   -0.7600    3.2340   -0.1780 H   0  0
    5.6150   -4.7360   -2.3650 H   0  0
    4.7850   -0.9350    4.4530 H   0  0
   -3.5860   -1.0060   -1.1370 H   0  0
   -3.3690   -1.5720    0.5060 H   0  0
    6.1780   -2.9240    3.9220 H   0  0
   -4.5450    0.3500    1.4260 H   0  0
   -5.5430   -0.3360    0.1680 H   0  0
   -4.8540    1.3950   -1.4300 H   0  0
   -5.3810    2.1740    0.0470 H   0  0
   -4.6930    6.2010   -0.0430 H   0  0
   -6.5250    4.2790   -3.4300 H   0  0
   -6.6050    6.4850   -1.9360 H   0  0
  1  2  2  0
  1  3  2  0
  1  4  1  0
  1  5  1  0
  4  6  1  0
  4  7  1  0
  5  8  2  0
  5  9  1  0
  6 10  2  0
  6 11  2  0
  6 12  1  0
  7 13  2  0
  7 14  1  0
  8 15  1  0
  9 16  2  0
 12 17  2  0
 12 18  1  0
 13 19  1  0
 14 20  2  0
 15 21  2  0
 17 22  1  0
 18 23  2  0
 19 24  2  0
 19 25  1  0
 22 26  2  0
 24 27  1  0
 25 28  1  0
 27 29  1  0
 27 30  1  0
 29 31  2  0
 29 32  1  0
 32 33  1  0
 32 34  2  0
 33 35  1  0
 34 36  1  0
 16 21  1  0
 20 24  1  0
 23 26  1  0
 28 30  1  0
 35 36  2  0
  8 37  1  0
  9 38  1  0
 13 39  1  0
 14 40  1  0
 16 41  1  0
 17 42  1  0
 18 43  1  0
 20 44  1  0
 21 45  1  0
 23 46  1  0
 25 47  1  0
 25 48  1  0
 26 49  1  0
 28 50  1  0
 28 51  1  0
 30 52  1  0
 30 53  1  0
 34 54  1  0
 35 55  1  0
 36 56  1  0
M  END
> <Name>
CHEMBL5283280

> <IC50 nM>
50000

> <Molecule_ChEMBL_ID>
CHEMBL5283280

> <Smiles>
O=C(c1ccco1)N1CCCc2cc(N(S(=O)(=O)c3cccnc3)S(=O)(=O)c3cccnc3)ccc21

$$$$
CHEMBL5289944
  SciTegic08162514323D

 42 45  0  0  0  0            999 V2000
    3.9360   -0.8790    0.6350 S   0  0
    4.0980   -0.1700   -0.6230 O   0  0
    3.9100    0.0020    1.7890 O   0  0
    2.5120   -1.6510    0.5800 N   0  0
    5.2460   -1.9630    0.8140 C   0  0
    1.3750   -0.9530    0.4410 C   0  0
    6.3710   -2.0120    2.0840 S   0  0
    5.4920   -2.9510   -0.1510 C   0  0
    0.1270   -1.6170    0.3920 C   0  0
    1.4080    0.4570    0.3440 C   0  0
    7.2030   -3.3280    1.3980 C   0  0
    6.6170   -3.7350    0.1870 C   0  0
   -1.0820   -0.8890    0.2480 C   0  0
    0.2130    1.1930    0.1990 C   0  0
   -1.0550    0.5410    0.1480 C   0  0
   -2.3630   -1.6390    0.1950 C   0  0
   -2.2190    1.2540    0.0120 N   0  0
   -3.5450   -0.7790    0.6560 C   0  0
   -2.2280    2.6270   -0.0670 C   0  0
   -3.5450    0.5720   -0.0700 C   0  0
   -1.3550    3.2730    0.4630 O   0  0
   -3.3030    3.2890   -0.7890 C   0  0
   -3.7690    4.4710   -0.2990 O   0  0
   -3.9530    2.8810   -1.9570 C   0  0
   -4.7480    4.8200   -1.1860 C   0  0
   -4.8930    3.8790   -2.2130 C   0  0
    2.4830   -2.6490    0.6480 H   0  0
    4.8970   -3.0980   -1.0410 H   0  0
    0.0840   -2.6950    0.4650 H   0  0
    2.3500    0.9900    0.3770 H   0  0
    8.0720   -3.7870    1.8490 H   0  0
    6.9830   -4.5550   -0.4160 H   0  0
    0.2990    2.2680    0.1290 H   0  0
   -2.5270   -1.9710   -0.8300 H   0  0
   -2.3100   -2.5370    0.8140 H   0  0
   -3.4840   -0.6170    1.7340 H   0  0
   -4.4840   -1.3030    0.4760 H   0  0
   -3.7950    0.4280   -1.1210 H   0  0
   -4.3220    1.2090    0.3530 H   0  0
   -3.7680    1.9840   -2.5370 H   0  0
   -5.3360    5.7230   -1.0940 H   0  0
   -5.5920    3.9180   -3.0370 H   0  0
  1  2  2  0
  1  3  2  0
  1  4  1  0
  1  5  1  0
  4  6  1  0
  5  7  1  0
  5  8  2  0
  6  9  2  0
  6 10  1  0
  7 11  1  0
  8 12  1  0
  9 13  1  0
 10 14  2  0
 13 15  2  0
 13 16  1  0
 15 17  1  0
 16 18  1  0
 17 19  1  0
 17 20  1  0
 19 21  2  0
 19 22  1  0
 22 23  1  0
 22 24  2  0
 23 25  1  0
 24 26  1  0
 11 12  2  0
 14 15  1  0
 18 20  1  0
 25 26  2  0
  4 27  1  0
  8 28  1  0
  9 29  1  0
 10 30  1  0
 11 31  1  0
 12 32  1  0
 14 33  1  0
 16 34  1  0
 16 35  1  0
 18 36  1  0
 18 37  1  0
 20 38  1  0
 20 39  1  0
 24 40  1  0
 25 41  1  0
 26 42  1  0
M  END
> <Name>
CHEMBL5289944

> <IC50 nM>
50000

> <Molecule_ChEMBL_ID>
CHEMBL5289944

> <Smiles>
O=C(c1ccco1)N1CCCc2cc(NS(=O)(=O)c3cccs3)ccc21

$$$$
CHEMBL5285701
  SciTegic08162514323D

 51 54  0  0  0  0            999 V2000
    2.6930   -0.0530    0.0000 S   0  0
    2.8240    0.6430   -1.2680 O   0  0
    2.6990    0.8400    1.1460 O   0  0
    1.2680   -0.8220   -0.0100 N   0  0
    4.0450   -1.2130    0.1640 C   0  0
    0.1310   -0.1250   -0.1490 C   0  0
    3.9880   -1.9120    1.5230 C   0  0
   -1.1170   -0.7870   -0.1970 C   0  0
    0.1640    1.2850   -0.2460 C   0  0
    5.0740   -2.9160    1.6680 C   0  0
   -2.3260   -0.0590   -0.3420 C   0  0
   -1.0330    2.0230   -0.3910 C   0  0
    6.2210   -2.6090    2.4220 C   0  0
    4.9550   -4.1760    1.0510 C   0  0
   -2.3010    1.3690   -0.4420 C   0  0
   -3.6070   -0.8110   -0.3950 C   0  0
    7.2480   -3.5610    2.5570 C   0  0
    5.9830   -5.1250    1.1870 C   0  0
   -3.4650    2.0840   -0.5780 N   0  0
   -4.7890    0.0510    0.0660 C   0  0
    7.1290   -4.8170    1.9410 C   0  0
   -3.4750    3.4570   -0.6560 C   0  0
   -4.7890    1.4000   -0.6600 C   0  0
   -2.6110    4.1040   -0.1110 O   0  0
   -4.5350    4.1170   -1.4010 C   0  0
   -4.9690    5.3300   -0.9510 O   0  0
   -5.2030    3.6800   -2.5450 C   0  0
   -5.9410    5.6680   -1.8480 C   0  0
   -6.1190    4.6910   -2.8360 C   0  0
    1.2340   -1.8170    0.0860 H   0  0
    4.9900   -0.6900    0.0410 H   0  0
    3.9980   -1.9420   -0.6450 H   0  0
    3.0220   -2.3990    1.6680 H   0  0
    4.0550   -1.1860    2.3340 H   0  0
   -1.1600   -1.8670   -0.1250 H   0  0
    1.1040    1.8180   -0.2130 H   0  0
   -0.9470    3.0980   -0.4610 H   0  0
    6.3180   -1.6450    2.8960 H   0  0
    4.0760   -4.4180    0.4710 H   0  0
   -3.7720   -1.1410   -1.4200 H   0  0
   -3.5570   -1.7090    0.2240 H   0  0
    8.1290   -3.3220    3.1370 H   0  0
    5.8910   -6.0920    0.7150 H   0  0
   -4.7310    0.2130    1.1440 H   0  0
   -5.7290   -0.4730   -0.1130 H   0  0
    7.9180   -5.5470    2.0470 H   0  0
   -5.0410    1.2580   -1.7110 H   0  0
   -5.5680    2.0390   -0.2360 H   0  0
   -5.0450    2.7580   -3.0900 H   0  0
   -6.5060    6.5900   -1.7890 H   0  0
   -6.8220    4.7170   -3.6580 H   0  0
  1  2  2  0
  1  3  2  0
  1  4  1  0
  1  5  1  0
  4  6  1  0
  5  7  1  0
  6  8  2  0
  6  9  1  0
  7 10  1  0
  8 11  1  0
  9 12  2  0
 10 13  2  0
 10 14  1  0
 11 15  2  0
 11 16  1  0
 13 17  1  0
 14 18  2  0
 15 19  1  0
 16 20  1  0
 17 21  2  0
 19 22  1  0
 19 23  1  0
 22 24  2  0
 22 25  1  0
 25 26  1  0
 25 27  2  0
 26 28  1  0
 27 29  1  0
 12 15  1  0
 18 21  1  0
 20 23  1  0
 28 29  2  0
  4 30  1  0
  5 31  1  0
  5 32  1  0
  7 33  1  0
  7 34  1  0
  8 35  1  0
  9 36  1  0
 12 37  1  0
 13 38  1  0
 14 39  1  0
 16 40  1  0
 16 41  1  0
 17 42  1  0
 18 43  1  0
 20 44  1  0
 20 45  1  0
 21 46  1  0
 23 47  1  0
 23 48  1  0
 27 49  1  0
 28 50  1  0
 29 51  1  0
M  END
> <Name>
CHEMBL5285701

> <IC50 nM>
10000

> <Molecule_ChEMBL_ID>
CHEMBL5285701

> <Smiles>
O=C(c1ccco1)N1CCCc2cc(NS(=O)(=O)CCc3ccccc3)ccc21

$$$$
CHEMBL5268681
  SciTegic08162514323D

 49 52  0  0  0  0            999 V2000
    4.4380   -2.2030   -1.8500 Cl  0  0
    3.0060   -3.1310   -1.6580 C   0  0
    2.2400   -3.0430   -0.4770 C   0  0
    2.5900   -3.9880   -2.6930 C   0  0
    2.7270   -1.9980    0.8130 S   0  0
    1.0700   -3.8110   -0.3320 C   0  0
    1.4220   -4.7540   -2.5490 C   0  0
    4.0660   -2.3770    1.2290 O   0  0
    1.7460   -2.1020    1.8790 O   0  0
    2.7790   -0.4470    0.3500 N   0  0
    0.3540   -3.7310    0.7710 O   0  0
    0.6640   -4.6660   -1.3710 C   0  0
    1.6430    0.2520    0.2110 C   0  0
   -0.8980   -4.4010    0.8030 C   0  0
    0.3950   -0.4120    0.1620 C   0  0
    1.6760    1.6600    0.1130 C   0  0
   -0.8140    0.3160    0.0180 C   0  0
    0.4800    2.3980   -0.0310 C   0  0
   -0.7870    1.7440   -0.0820 C   0  0
   -2.0960   -0.4360   -0.0330 C   0  0
   -1.9530    2.4590   -0.2190 N   0  0
   -3.2770    0.4260    0.4260 C   0  0
   -1.9610    3.8320   -0.2950 C   0  0
   -3.2770    1.7770   -0.3010 C   0  0
   -2.6640    4.3930   -1.1040 O   0  0
   -1.1210    4.6070    0.6040 C   0  0
   -0.8010    4.0590    1.8110 O   0  0
   -0.5700    5.8750    0.4100 C   0  0
   -0.0230    5.0160    2.3970 C   0  0
    0.1450    6.1410    1.5780 C   0  0
    3.1620   -4.0690   -3.6070 H   0  0
    1.1050   -5.4120   -3.3460 H   0  0
    3.6600   -0.0100    0.1660 H   0  0
   -0.2340   -5.2560   -1.2640 H   0  0
   -1.3260   -4.2770    1.7990 H   0  0
   -1.5020   -4.0370   -0.0290 H   0  0
   -0.7210   -5.4630    0.6460 H   0  0
    0.3520   -1.4900    0.2340 H   0  0
    2.6150    2.1950    0.1480 H   0  0
    0.5660    3.4730   -0.1020 H   0  0
   -2.2600   -0.7660   -1.0610 H   0  0
   -2.0430   -1.3320    0.5840 H   0  0
   -3.2170    0.5880    1.5040 H   0  0
   -4.2170   -0.0980    0.2460 H   0  0
   -3.5270    1.6330   -1.3520 H   0  0
   -4.0550    2.4140    0.1230 H   0  0
   -0.6760    6.5160   -0.4570 H   0  0
    0.4100    4.9040    3.3810 H   0  0
    0.7110    7.0330    1.8070 H   0  0
  1  2  1  0
  2  3  2  0
  2  4  1  0
  3  5  1  0
  3  6  1  0
  4  7  2  0
  5  8  2  0
  5  9  2  0
  5 10  1  0
  6 11  1  0
  6 12  2  0
 10 13  1  0
 11 14  1  0
 13 15  2  0
 13 16  1  0
 15 17  1  0
 16 18  2  0
 17 19  2  0
 17 20  1  0
 19 21  1  0
 20 22  1  0
 21 23  1  0
 21 24  1  0
 23 25  2  0
 23 26  1  0
 26 27  1  0
 26 28  2  0
 27 29  1  0
 28 30  1  0
  7 12  1  0
 18 19  1  0
 22 24  1  0
 29 30  2  0
  4 31  1  0
  7 32  1  0
 10 33  1  0
 12 34  1  0
 14 35  1  0
 14 36  1  0
 14 37  1  0
 15 38  1  0
 16 39  1  0
 18 40  1  0
 20 41  1  0
 20 42  1  0
 22 43  1  0
 22 44  1  0
 24 45  1  0
 24 46  1  0
 28 47  1  0
 29 48  1  0
 30 49  1  0
M  END
> <Name>
CHEMBL5268681

> <IC50 nM>
10000

> <Molecule_ChEMBL_ID>
CHEMBL5268681

> <Smiles>
COc1cccc(Cl)c1S(=O)(=O)Nc1ccc2c(c1)CCCN2C(=O)c1ccco1

$$$$
CHEMBL5291033
  SciTegic08162514323D

 58 61  0  0  0  0            999 V2000
    1.2810   -2.2750   -0.0150 S   0  0
    0.5020   -2.4980    1.1900 O   0  0
    0.6130   -2.7320   -1.2220 O   0  0
    1.5120   -0.6800   -0.1600 N   0  0
    2.7720   -3.1350    0.1370 C   0  0
    0.4590    0.1410   -0.2890 C   0  0
    3.5270   -3.0310    1.3190 C   0  0
    3.2230   -3.9360   -0.9260 C   0  0
   -0.8570   -0.3770   -0.3010 C   0  0
    0.6500    1.5370   -0.4160 C   0  0
    3.1060   -2.2790    2.3150 O   0  0
    4.7400   -3.7340    1.4300 C   0  0
    4.4360   -4.6390   -0.8120 C   0  0
   -1.9790    0.4810   -0.4390 C   0  0
   -0.4590    2.4020   -0.5510 C   0  0
    3.8570   -2.2870    3.5200 C   0  0
    5.1970   -4.5370    0.3690 C   0  0
    4.9000   -5.4820   -1.9450 C   0  0
   -1.7910    1.8970   -0.5660 C   0  0
   -3.3360   -0.1210   -0.4450 C   0  0
    6.4830   -5.2730    0.5100 C   0  0
   -2.8710    2.7340   -0.6970 N   0  0
   -4.3520    0.7660   -1.1740 C   0  0
   -2.7230    4.0920   -0.8530 C   0  0
   -4.2680    2.2130   -0.6700 C   0  0
   -1.7190    4.5490   -1.3510 O   0  0
   -3.8240    4.9880   -0.3900 C   0  0
   -4.2750    6.0370   -1.2150 C   0  0
   -4.4140    4.7850    0.8710 C   0  0
   -5.3110    6.8790   -0.7770 C   0  0
   -5.4510    5.6290    1.3070 C   0  0
   -5.9000    6.6760    0.4830 C   0  0
    2.4390   -0.3050   -0.1520 H   0  0
    2.6350   -4.0080   -1.8280 H   0  0
   -1.0210   -1.4430   -0.2050 H   0  0
    1.6450    1.9590   -0.4100 H   0  0
    5.3220   -3.6540    2.3380 H   0  0
   -0.2540    3.4590   -0.6420 H   0  0
    3.3870   -1.5960    4.2190 H   0  0
    3.9530   -3.3200    3.8560 H   0  0
    4.8570   -1.9120    3.3010 H   0  0
    5.0800   -6.5250   -1.6830 H   0  0
    5.8280   -5.0740   -2.3470 H   0  0
    4.1560   -5.4630   -2.7420 H   0  0
   -3.3200   -1.1070   -0.9140 H   0  0
   -3.6520   -0.2700    0.5880 H   0  0
    6.9920   -5.1070    1.4570 H   0  0
    7.1600   -4.9770   -0.2910 H   0  0
    6.3010   -6.3440    0.4100 H   0  0
   -4.1620    0.7400   -2.2480 H   0  0
   -5.3610    0.3770   -1.0310 H   0  0
   -4.9140    2.8460   -1.2790 H   0  0
   -4.6390    2.2720    0.3560 H   0  0
   -3.8280    6.2010   -2.1830 H   0  0
   -4.0760    3.9840    1.5120 H   0  0
   -5.6560    7.6840   -1.4100 H   0  0
   -5.9020    5.4730    2.2760 H   0  0
   -6.6970    7.3220    0.8190 H   0  0
  1  2  2  0
  1  3  2  0
  1  4  1  0
  1  5  1  0
  4  6  1  0
  5  7  2  0
  5  8  1  0
  6  9  2  0
  6 10  1  0
  7 11  1  0
  7 12  1  0
  8 13  2  0
  9 14  1  0
 10 15  2  0
 11 16  1  0
 12 17  2  0
 13 18  1  0
 14 19  2  0
 14 20  1  0
 17 21  1  0
 19 22  1  0
 20 23  1  0
 22 24  1  0
 22 25  1  0
 24 26  2  0
 24 27  1  0
 27 28  2  0
 27 29  1  0
 28 30  1  0
 29 31  2  0
 30 32  2  0
 13 17  1  0
 15 19  1  0
 23 25  1  0
 31 32  1  0
  4 33  1  0
  8 34  1  0
  9 35  1  0
 10 36  1  0
 12 37  1  0
 15 38  1  0
 16 39  1  0
 16 40  1  0
 16 41  1  0
 18 42  1  0
 18 43  1  0
 18 44  1  0
 20 45  1  0
 20 46  1  0
 21 47  1  0
 21 48  1  0
 21 49  1  0
 23 50  1  0
 23 51  1  0
 25 52  1  0
 25 53  1  0
 28 54  1  0
 29 55  1  0
 30 56  1  0
 31 57  1  0
 32 58  1  0
M  END
> <Name>
CHEMBL5291033

> <IC50 nM>
1140

> <Molecule_ChEMBL_ID>
CHEMBL5291033

> <Smiles>
COc1cc(C)c(C)cc1S(=O)(=O)Nc1ccc2c(c1)CCCN2C(=O)c1ccccc1

$$$$
CHEMBL526106
  SciTegic08162514323D

 73 76  0  0  1  0            999 V2000
   -2.7600    0.7970    0.0210 F   0  0
   -2.5660    0.1450    1.2250 C   0  0  2  0  0  0
   -3.9880   -0.0820    1.8340 C   0  0  2  0  0  0
   -1.6070    1.0900    2.0100 C   0  0  1  0  0  0
   -1.8850   -1.2300    0.9450 C   0  0  2  0  0  0
   -4.8500   -0.7750    0.7750 C   0  0
   -4.6430    1.1970    2.3530 C   0  0
   -3.9280   -1.0230    3.0450 C   0  0
   -1.4570    0.6560    3.3480 O   0  0
   -0.2130    1.2050    1.3420 C   0  0
   -0.5760   -0.9840    0.1700 C   0  0  1  0  0  0
   -2.8240   -2.2790    0.2970 C   0  0
   -6.1720   -0.5310    0.6600 C   0  0
   -4.1800   -1.7400   -0.1860 C   0  0
   -5.9590    1.4430    2.2050 C   0  0
    0.4100   -0.1660    1.0230 C   0  0  1  0  0  0
    0.2730   -2.1930   -0.2090 C   0  0
   -6.8190    0.5180    1.4590 C   0  0
    1.6190   -0.1540    0.0700 C   0  0  1  0  0  0
    0.8160   -0.9000    2.3110 C   0  0
    1.6740   -1.6050   -0.4590 C   0  0  1  0  0  0
   -8.0220    0.6250    1.4880 O   0  0
    1.3440    0.7090   -1.0290 O   0  0
    2.9000    0.3500    0.6930 C   0  0
    2.7150   -2.4900    0.2280 C   0  0
    2.3850    0.8320   -1.8480 C   0  0
    2.8790    1.0680    1.6660 O   0  0
    4.2050   -0.0680    0.0680 C   0  0
    3.0290   -0.1020   -2.2640 O   0  0
    2.7030    2.1090   -2.2150 N   0  0
    5.0780   -0.5350    1.0700 O   0  0
    3.8400    2.3360   -3.1210 C   0  0  3  0  0  0
    3.6040    1.6680   -4.4750 C   0  0
    5.1540    1.9020   -2.4690 C   0  0
    2.3570    2.1970   -5.1860 C   0  0
   -2.0310    2.0920    2.0660 H   0  0
   -1.6040   -1.6620    1.9060 H   0  0
   -4.0470    1.9380    2.8650 H   0  0
   -4.9240   -1.2890    3.4040 H   0  0
   -3.3910   -0.5550    3.8710 H   0  0
   -3.4080   -1.9470    2.7910 H   0  0
   -2.0250    1.2190    3.8960 H   0  0
   -0.3300    1.7720    0.4180 H   0  0
    0.4650    1.7950    1.9610 H   0  0
   -0.8150   -0.4550   -0.7440 H   0  0
   -3.0200   -3.0610    1.0330 H   0  0
   -2.3320   -2.7890   -0.5310 H   0  0
   -6.7680   -1.1000   -0.0390 H   0  0
   -4.0350   -1.2270   -1.1350 H   0  0
   -4.8460   -2.5780   -0.3950 H   0  0
   -6.3850    2.3360    2.6390 H   0  0
    0.2750   -2.9140    0.5980 H   0  0
   -0.1090   -2.6970   -1.0860 H   0  0
    1.3240   -1.8420    2.0980 H   0  0
   -0.0590   -1.1250    2.9200 H   0  0
    1.4900   -0.2870    2.9080 H   0  0
    1.8850   -1.5980   -1.5180 H   0  0
    3.5490   -2.7230   -0.4340 H   0  0
    2.2700   -3.4320    0.5490 H   0  0
    3.1170   -1.9960    1.1110 H   0  0
    4.6740    0.7870   -0.4180 H   0  0
    4.0330   -0.8810   -0.6390 H   0  0
    2.1680    2.8810   -1.8710 H   0  0
    5.9020   -0.7970    0.6330 H   0  0
    3.7950    3.4220   -3.2130 H   0  0
    4.4820    1.7680   -5.1130 H   0  0
    3.5530    0.5840   -4.3670 H   0  0
    5.2750    2.3320   -1.4750 H   0  0
    6.0040    2.2170   -3.0740 H   0  0
    5.1950    0.8180   -2.3710 H   0  0
    2.2770    1.7770   -6.1880 H   0  0
    1.4570    1.9470   -4.6230 H   0  0
    2.4000    3.2830   -5.2810 H   0  0
  2  1  1  0
  2  3  1  0
  2  4  1  0
  2  5  1  0
  3  6  1  0
  3  7  1  0
  3  8  1  0
  4  9  1  0
  4 10  1  0
  5 11  1  0
  5 12  1  0
  6 13  2  0
  6 14  1  0
  7 15  2  0
 10 16  1  0
 11 17  1  0
 13 18  1  0
 16 19  1  0
 16 20  1  0
 17 21  1  0
 18 22  2  0
 19 23  1  0
 19 24  1  0
 21 25  1  0
 23 26  1  0
 24 27  2  0
 24 28  1  0
 26 29  2  0
 26 30  1  0
 28 31  1  0
 30 32  1  0
 32 33  1  0
 32 34  1  0
 33 35  1  0
 11 16  1  0
 12 14  1  0
 15 18  1  0
 19 21  1  0
  4 36  1  0
  5 37  1  0
  7 38  1  0
  8 39  1  0
  8 40  1  0
  8 41  1  0
  9 42  1  0
 10 43  1  0
 10 44  1  0
 11 45  1  0
 12 46  1  0
 12 47  1  0
 13 48  1  0
 14 49  1  0
 14 50  1  0
 15 51  1  0
 17 52  1  0
 17 53  1  0
 20 54  1  0
 20 55  1  0
 20 56  1  0
 21 57  1  0
 25 58  1  0
 25 59  1  0
 25 60  1  0
 28 61  1  0
 28 62  1  0
 30 63  1  0
 31 64  1  0
 32 65  1  0
 33 66  1  0
 33 67  1  0
 34 68  1  0
 34 69  1  0
 34 70  1  0
 35 71  1  0
 35 72  1  0
 35 73  1  0
M  END
> <Name>
CHEMBL526106

> <IC50 nM>
0.5

> <Molecule_ChEMBL_ID>
CHEMBL526106

> <Smiles>
CCC(C)NC(=O)O[C@]1(C(=O)CO)[C@@H](C)C[C@H]2[C@@H]3CCC4=CC(=O)C=C[C@]4(C)[C@@]3(F)[C@@H](O)C[C@@]21C

$$$$
CHEMBL3904106
  SciTegic08162514323D

 78 83  0  0  1  0            999 V2000
    2.9710   -3.5780    3.4840 Cl  0  0
    1.2950   -3.2190    3.6150 C   0  0
    0.7810   -1.9550    3.2460 C   0  0
    0.4200   -4.2110    4.1020 C   0  0
   -0.5960   -1.6970    3.3670 C   0  0
    1.6720   -0.8810    2.7250 C   0  0
   -0.9550   -3.9450    4.2230 C   0  0
   -1.4610   -2.6880    3.8560 C   0  0
    1.2830   -0.5450    1.4120 O   0  0
    1.8530    0.6720    0.9550 C   0  0  2  0  0  0
    1.1890    1.1250   -0.3810 C   0  0  2  0  0  0
    3.3890    0.5230    0.8220 C   0  0
   -0.2990    1.3360   -0.3280 C   0  0
    1.6230    0.2090   -1.5570 C   0  0  2  0  0  0
    3.8010   -0.3540   -0.3750 C   0  0  1  0  0  0
   -1.1270    1.0490   -1.4610 C   0  0
   -0.9060    1.8460    0.8520 C   0  0
    3.1580    0.2340   -1.6450 C   0  0  1  0  0  0
    0.9590    0.6700   -2.8570 C   0  0
    5.2950   -0.3770   -0.7970 C   0  0  2  0  0  0
    3.3320   -1.8090   -0.1720 C   0  0
   -2.5290    1.2520   -1.3790 C   0  0
   -0.5650    0.5290   -2.7380 C   0  0
   -2.3030    2.0410    0.9220 C   0  0
    3.8030   -0.6000   -2.7540 C   0  0
    6.0590   -1.2380    0.0270 O   0  0
    5.9320    0.9510   -0.7710 C   0  0
    5.2110   -0.9300   -2.2380 C   0  0
   -3.1130    1.7420   -0.1930 C   0  0
    6.4570    2.0200   -0.7440 C   0  0
   -4.5760    1.9470   -0.1190 C   0  0
    7.1060    3.3260   -0.7030 C   0  0
   -5.1900    2.8890    0.3260 O   0  0
   -5.2440    0.8770   -0.6450 N   0  0
   -6.6150    0.8690   -0.6720 C   0  0
   -7.3560   -0.2950   -0.3500 C   0  0
   -7.3090    2.0430   -1.0250 C   0  0
   -8.7210   -0.2930   -0.3770 N   0  0
   -6.6760   -1.5650    0.0330 C   0  0
   -8.7130    2.0270   -1.0510 C   0  0
   -9.3950    0.8420   -0.7210 C   0  0
    0.7930   -5.1840    4.3890 H   0  0
   -0.9940   -0.7320    3.0860 H   0  0
    1.5680    0.0100    3.3460 H   0  0
    2.6990   -1.2420    2.6930 H   0  0
   -1.6210   -4.7070    4.5980 H   0  0
   -2.5180   -2.4840    3.9470 H   0  0
    1.6740    1.4000    1.7420 H   0  0
    1.5920    2.1150   -0.5940 H   0  0
    3.8160    0.1290    1.7460 H   0  0
    3.7990    1.5270    0.7110 H   0  0
    1.2910   -0.8140   -1.3670 H   0  0
   -0.3200    2.0960    1.7230 H   0  0
    3.4650    1.2640   -1.7790 H   0  0
    1.3110    0.0800   -3.7030 H   0  0
    1.2270    1.7070   -3.0660 H   0  0
    3.6820   -2.4650   -0.9710 H   0  0
    2.2440   -1.8630   -0.1500 H   0  0
    3.7050   -2.2050    0.7710 H   0  0
   -3.1540    1.0290   -2.2320 H   0  0
   -0.8300   -0.5250   -2.8140 H   0  0
   -1.0370    1.0250   -3.5880 H   0  0
   -2.7420    2.4180    1.8320 H   0  0
    3.8280   -0.0660   -3.6910 H   0  0
    3.2440   -1.5120   -2.9160 H   0  0
    6.8850   -1.4260   -0.4410 H   0  0
    5.9790   -0.5290   -2.8910 H   0  0
    5.3400   -2.0060   -2.2540 H   0  0
    7.2420    3.6470    0.3280 H   0  0
    6.4940    4.0640   -1.2230 H   0  0
    8.0820    3.2770   -1.1880 H   0  0
   -4.7330    0.1000   -1.0120 H   0  0
   -6.7810    2.9530   -1.2790 H   0  0
   -7.3540   -2.3750    0.2950 H   0  0
   -6.0240   -1.3850    0.8890 H   0  0
   -6.0510   -1.9040   -0.7930 H   0  0
   -9.2640    2.9160   -1.3180 H   0  0
  -10.4750    0.8280   -0.7380 H   0  0
  1  2  1  0
  2  3  2  0
  2  4  1  0
  3  5  1  0
  3  6  1  0
  4  7  2  0
  5  8  2  0
  6  9  1  0
 10  9  1  0
 10 11  1  0
 10 12  1  0
 11 13  1  0
 11 14  1  0
 12 15  1  0
 13 16  2  0
 13 17  1  0
 14 18  1  0
 14 19  1  0
 15 20  1  0
 15 21  1  0
 16 22  1  0
 16 23  1  0
 17 24  2  0
 18 25  1  0
 20 26  1  0
 20 27  1  0
 20 28  1  0
 22 29  2  0
 27 30  3  0
 29 31  1  0
 30 32  1  0
 31 33  2  0
 31 34  1  0
 34 35  1  0
 35 36  2  0
 35 37  1  0
 36 38  1  0
 36 39  1  0
 37 40  2  0
 38 41  2  0
  7  8  1  0
 15 18  1  0
 19 23  1  0
 24 29  1  0
 25 28  1  0
 40 41  1  0
  4 42  1  0
  5 43  1  0
  6 44  1  0
  6 45  1  0
  7 46  1  0
  8 47  1  0
 10 48  1  0
 11 49  1  0
 12 50  1  0
 12 51  1  0
 14 52  1  0
 17 53  1  0
 18 54  1  0
 19 55  1  0
 19 56  1  0
 21 57  1  0
 21 58  1  0
 21 59  1  0
 22 60  1  0
 23 61  1  0
 23 62  1  0
 24 63  1  0
 25 64  1  0
 25 65  1  0
 26 66  1  0
 28 67  1  0
 28 68  1  0
 32 69  1  0
 32 70  1  0
 32 71  1  0
 34 72  1  0
 37 73  1  0
 39 74  1  0
 39 75  1  0
 39 76  1  0
 40 77  1  0
 41 78  1  0
M  END
> <Name>
CHEMBL3904106

> <IC50 nM>
1.4

> <Molecule_ChEMBL_ID>
CHEMBL3904106

> <Smiles>
CC#C[C@]1(O)CC[C@H]2[C@@H]3CCc4cc(C(=O)Nc5cccnc5C)ccc4[C@H]3[C@@H](OCc3ccccc3Cl)C[C@@]21C

$$$$
CHEMBL5270525
  SciTegic08162514323D

 50 52  0  0  0  0            999 V2000
    3.7150   -1.3170    1.0290 S   0  0
    4.3990   -2.5180    1.4730 O   0  0
    4.5370   -0.4730    0.1800 O   0  0
    2.4300   -1.7790    0.1600 N   0  0
    3.2130   -0.3750    2.4650 C   0  0
    2.4140   -3.2350   -0.5530 S   0  0
    1.3770   -0.9590    0.0310 C   0  0
    4.4200   -0.0610    3.3500 C   0  0
    3.7950   -3.6470   -0.7320 O   0  0
    1.6560   -4.1310    0.3030 O   0  0
    1.6230   -3.1540   -2.1520 C   0  0
    0.0610   -1.4770    0.0180 C   0  0
    1.5680    0.4370   -0.0960 C   0  0
    1.6720   -4.5180   -2.8440 C   0  0
   -1.0590   -0.6190   -0.1190 C   0  0
    0.4610    1.3030   -0.2320 C   0  0
   -0.8730    0.7970   -0.2460 C   0  0
   -2.4180   -1.2190   -0.1250 C   0  0
   -1.9510    1.6350   -0.3790 N   0  0
   -3.4300   -0.3320   -0.8570 C   0  0
   -1.8050    2.9920   -0.5410 C   0  0
   -3.3480    1.1110   -0.3480 C   0  0
   -0.8050    3.4410   -1.0510 O   0  0
   -2.8630    3.8870   -0.0980 C   0  0
   -3.6500    3.4780    0.9380 O   0  0
   -3.2050    5.1480   -0.5880 C   0  0
   -4.5200    4.5200    1.1020 C   0  0
   -4.2850    5.5590    0.1930 C   0  0
    2.4630   -0.9340    3.0220 H   0  0
    2.7230    0.5450    2.1430 H   0  0
    4.1390    0.5140    4.2330 H   0  0
    5.1620    0.5180    2.7990 H   0  0
    4.8990   -0.9810    3.6880 H   0  0
    0.5920   -2.8200   -2.0330 H   0  0
    2.1110   -2.3950   -2.7640 H   0  0
   -0.1030   -2.5410    0.1150 H   0  0
    2.5630    0.8610   -0.0900 H   0  0
    1.1860   -4.4750   -3.8180 H   0  0
    2.7030   -4.8460   -2.9750 H   0  0
    1.1560   -5.2720   -2.2480 H   0  0
    0.6660    2.3590   -0.3240 H   0  0
   -2.4040   -2.2070   -0.5880 H   0  0
   -2.7340   -1.3590    0.9100 H   0  0
   -3.2320   -0.3560   -1.9320 H   0  0
   -4.4390   -0.7230   -0.7230 H   0  0
   -4.0040    1.7460   -0.9450 H   0  0
   -3.7110    1.1620    0.6800 H   0  0
   -2.7360    5.6910   -1.3980 H   0  0
   -5.2990    4.5250    1.8540 H   0  0
   -4.8300    6.4900    0.1150 H   0  0
  1  2  2  0
  1  3  2  0
  1  4  1  0
  1  5  1  0
  4  6  1  0
  4  7  1  0
  5  8  1  0
  6  9  2  0
  6 10  2  0
  6 11  1  0
  7 12  2  0
  7 13  1  0
 11 14  1  0
 12 15  1  0
 13 16  2  0
 15 17  2  0
 15 18  1  0
 17 19  1  0
 18 20  1  0
 19 21  1  0
 19 22  1  0
 21 23  2  0
 21 24  1  0
 24 25  1  0
 24 26  2  0
 25 27  1  0
 26 28  1  0
 16 17  1  0
 20 22  1  0
 27 28  2  0
  5 29  1  0
  5 30  1  0
  8 31  1  0
  8 32  1  0
  8 33  1  0
 11 34  1  0
 11 35  1  0
 12 36  1  0
 13 37  1  0
 14 38  1  0
 14 39  1  0
 14 40  1  0
 16 41  1  0
 18 42  1  0
 18 43  1  0
 20 44  1  0
 20 45  1  0
 22 46  1  0
 22 47  1  0
 26 48  1  0
 27 49  1  0
 28 50  1  0
M  END
> <Name>
CHEMBL5270525

> <IC50 nM>
50000

> <Molecule_ChEMBL_ID>
CHEMBL5270525

> <Smiles>
CCS(=O)(=O)N(c1ccc2c(c1)CCCN2C(=O)c1ccco1)S(=O)(=O)CC

$$$$
CHEMBL5283706
  SciTegic08162514323D

 64 68  0  0  0  0            999 V2000
    2.9940   -0.5980   -0.1190 S   0  0
    3.6860   -1.7620    0.4020 O   0  0
    3.7700    0.1370   -1.1040 O   0  0
    1.6470   -1.1170   -0.8520 N   0  0
    2.6470    0.4630    1.1970 C   0  0
    1.5700   -2.6310   -1.4260 S   0  0
    0.5940   -0.2970   -0.9810 C   0  0
    3.0740    1.8010    1.1520 C   0  0
    1.9400   -0.0160    2.3120 C   0  0
    0.6170   -2.6330   -2.5240 O   0  0
    2.9100   -3.0120   -1.8320 O   0  0
    1.0250   -3.7500   -0.2320 C   0  0
   -0.7230   -0.8140   -0.9920 C   0  0
    0.7850    1.0980   -1.1070 C   0  0
    2.7910    2.6620    2.2250 C   0  0
    1.6560    0.8480    3.3870 C   0  0
    1.2110   -5.1290   -0.4280 C   0  0
    0.3970   -3.2810    0.9340 C   0  0
   -1.8440    0.0430   -1.1310 C   0  0
   -0.3220    1.9630   -1.2440 C   0  0
    2.0820    2.1880    3.3440 C   0  0
    0.7680   -6.0410    0.5450 C   0  0
   -0.0490   -4.1930    1.9060 C   0  0
   -1.6560    1.4570   -1.2580 C   0  0
   -3.2030   -0.5590   -1.1370 C   0  0
    1.7830    3.1000    4.4790 C   0  0
    0.1370   -5.5740    1.7130 C   0  0
   -2.7340    2.2970   -1.3910 N   0  0
   -4.2150    0.3280   -1.8690 C   0  0
    1.0900    2.4180    5.4430 F   0  0
    1.0270    4.1520    4.0310 F   0  0
    2.9570    3.5700    5.0060 F   0  0
   -0.3320   -6.5390    2.7400 C   0  0
   -2.5880    3.6540   -1.5530 C   0  0
   -4.1310    1.7740   -1.3590 C   0  0
   -0.9080   -5.8550    3.7790 F   0  0
    0.7340   -7.2640    3.2070 F   0  0
   -1.2540   -7.3870    2.1860 F   0  0
   -3.3030    4.4220   -0.9530 O   0  0
   -1.5640    4.1640   -2.4550 C   0  0
   -1.1640    3.3630   -3.4810 O   0  0
   -0.9080    5.3970   -2.4240 C   0  0
   -0.2210    4.1170   -4.1190 C   0  0
   -0.0330    5.3630   -3.5100 C   0  0
    3.6190    2.1660    0.2950 H   0  0
    1.6110   -1.0450    2.3480 H   0  0
   -0.8870   -1.8810   -0.8970 H   0  0
    1.7790    1.5220   -1.1020 H   0  0
    3.1210    3.6920    2.1860 H   0  0
    1.1110    0.4770    4.2420 H   0  0
    1.6950   -5.4880   -1.3240 H   0  0
    0.2520   -2.2210    1.0820 H   0  0
   -0.1170    3.0220   -1.3360 H   0  0
    0.9140   -7.1000    0.3910 H   0  0
   -0.5310   -3.8280    2.8010 H   0  0
   -3.1870   -1.5470   -1.5980 H   0  0
   -3.5200   -0.6990   -0.1020 H   0  0
   -4.0160    0.3070   -2.9430 H   0  0
   -5.2230   -0.0600   -1.7340 H   0  0
   -4.7870    2.4080   -1.9570 H   0  0
   -4.4940    1.8240   -0.3300 H   0  0
   -1.0470    6.2010   -1.7130 H   0  0
    0.3130    3.7770   -4.9980 H   0  0
    0.6500    6.1430   -3.8170 H   0  0
  1  2  2  0
  1  3  2  0
  1  4  1  0
  1  5  1  0
  4  6  1  0
  4  7  1  0
  5  8  2  0
  5  9  1  0
  6 10  2  0
  6 11  2  0
  6 12  1  0
  7 13  2  0
  7 14  1  0
  8 15  1  0
  9 16  2  0
 12 17  2  0
 12 18  1  0
 13 19  1  0
 14 20  2  0
 15 21  2  0
 17 22  1  0
 18 23  2  0
 19 24  2  0
 19 25  1  0
 21 26  1  0
 22 27  2  0
 24 28  1  0
 25 29  1  0
 26 30  1  0
 26 31  1  0
 26 32  1  0
 27 33  1  0
 28 34  1  0
 28 35  1  0
 33 36  1  0
 33 37  1  0
 33 38  1  0
 34 39  2  0
 34 40  1  0
 40 41  1  0
 40 42  2  0
 41 43  1  0
 42 44  1  0
 16 21  1  0
 20 24  1  0
 23 27  1  0
 29 35  1  0
 43 44  2  0
  8 45  1  0
  9 46  1  0
 13 47  1  0
 14 48  1  0
 15 49  1  0
 16 50  1  0
 17 51  1  0
 18 52  1  0
 20 53  1  0
 22 54  1  0
 23 55  1  0
 25 56  1  0
 25 57  1  0
 29 58  1  0
 29 59  1  0
 35 60  1  0
 35 61  1  0
 42 62  1  0
 43 63  1  0
 44 64  1  0
M  END
> <Name>
CHEMBL5283706

> <IC50 nM>
50000

> <Molecule_ChEMBL_ID>
CHEMBL5283706

> <Smiles>
O=C(c1ccco1)N1CCCc2cc(N(S(=O)(=O)c3ccc(C(F)(F)F)cc3)S(=O)(=O)c3ccc(C(F)(F)F)cc3)ccc21

$$$$
CHEMBL5277344
  SciTegic08162514323D

 64 67  0  0  0  0            999 V2000
    2.1390   -1.0720    0.8770 S   0  0
    2.3180   -0.4040   -0.4000 O   0  0
    2.2760   -0.1780    2.0140 O   0  0
    0.6350   -1.6720    0.9060 N   0  0
    3.3340   -2.3110    1.0140 C   0  0
   -0.4160   -0.8520    0.7750 C   0  0
    3.3910   -3.3440    0.0630 C   0  0
    4.2480   -2.2770    2.0800 C   0  0
   -1.7320   -1.3690    0.7640 C   0  0
   -0.2260    0.5430    0.6500 C   0  0
    2.5330   -3.3770   -0.9370 O   0  0
    4.3690   -4.3480    0.1860 C   0  0
    5.2250   -3.2790    2.2030 C   0  0
   -2.8530   -0.5120    0.6250 C   0  0
   -1.3340    1.4100    0.5140 C   0  0
    2.7050   -4.3790   -1.9300 C   0  0
    5.2850   -4.3200    1.2520 C   0  0
    6.1860   -3.2320    3.3380 C   0  0
   -2.6660    0.9020    0.4980 C   0  0
   -4.2130   -1.1130    0.6210 C   0  0
    6.3130   -5.3910    1.3630 C   0  0
   -3.7460    1.7420    0.3650 N   0  0
   -5.2250   -0.2250   -0.1130 C   0  0
   -3.6000    3.1000    0.2030 C   0  0
   -5.1410    1.2190    0.3990 C   0  0
   -4.1450    3.8670    0.9610 O   0  0
   -2.7460    3.6060   -0.9340 C   0  0
   -3.6110    3.9690   -2.1560 C   0  0
   -1.8850    4.8030   -0.4900 C   0  0
   -2.7680    4.5310   -3.3110 C   0  0
   -1.0430    5.3630   -1.6460 C   0  0
   -1.9160    5.7250   -2.8570 C   0  0
    0.4920   -2.6540    1.0220 H   0  0
    4.1950   -1.4770    2.8070 H   0  0
   -1.8980   -2.4360    0.8610 H   0  0
    0.7700    0.9670    0.6560 H   0  0
    4.4120   -5.1430   -0.5450 H   0  0
   -1.1290    2.4670    0.4220 H   0  0
    1.9040   -4.2740   -2.6620 H   0  0
    3.7230   -4.3090   -2.3140 H   0  0
    2.5940   -5.3540   -1.4530 H   0  0
    6.9060   -4.0490    3.3520 H   0  0
    5.6390   -3.2560    4.2790 H   0  0
    6.7440   -2.2970    3.3010 H   0  0
   -4.1970   -2.1020    0.1580 H   0  0
   -4.5290   -1.2520    1.6540 H   0  0
    6.2660   -6.1410    0.5740 H   0  0
    6.1990   -5.9040    2.3180 H   0  0
    7.3070   -4.9450    1.3400 H   0  0
   -5.0270   -0.2480   -1.1860 H   0  0
   -6.2340   -0.6150    0.0220 H   0  0
   -5.7970    1.8540   -0.1990 H   0  0
   -5.5040    1.2700    1.4260 H   0  0
   -2.0760    2.7950   -1.2250 H   0  0
   -4.1600    3.0920   -2.5020 H   0  0
   -4.3570    4.7110   -1.8690 H   0  0
   -1.2260    4.5080    0.3280 H   0  0
   -2.5270    5.5940   -0.1030 H   0  0
   -3.4180    4.8300   -4.1310 H   0  0
   -2.1170    3.7480   -3.7010 H   0  0
   -0.2950    4.6250   -1.9430 H   0  0
   -0.4920    6.2420   -1.3110 H   0  0
   -1.2890    6.0700   -3.6800 H   0  0
   -2.5700    6.5570   -2.5940 H   0  0
  1  2  2  0
  1  3  2  0
  1  4  1  0
  1  5  1  0
  4  6  1  0
  5  7  2  0
  5  8  1  0
  6  9  2  0
  6 10  1  0
  7 11  1  0
  7 12  1  0
  8 13  2  0
  9 14  1  0
 10 15  2  0
 11 16  1  0
 12 17  2  0
 13 18  1  0
 14 19  2  0
 14 20  1  0
 17 21  1  0
 19 22  1  0
 20 23  1  0
 22 24  1  0
 22 25  1  0
 24 26  2  0
 24 27  1  0
 27 28  1  0
 27 29  1  0
 28 30  1  0
 29 31  1  0
 30 32  1  0
 13 17  1  0
 15 19  1  0
 23 25  1  0
 31 32  1  0
  4 33  1  0
  8 34  1  0
  9 35  1  0
 10 36  1  0
 12 37  1  0
 15 38  1  0
 16 39  1  0
 16 40  1  0
 16 41  1  0
 18 42  1  0
 18 43  1  0
 18 44  1  0
 20 45  1  0
 20 46  1  0
 21 47  1  0
 21 48  1  0
 21 49  1  0
 23 50  1  0
 23 51  1  0
 25 52  1  0
 25 53  1  0
 27 54  1  0
 28 55  1  0
 28 56  1  0
 29 57  1  0
 29 58  1  0
 30 59  1  0
 30 60  1  0
 31 61  1  0
 31 62  1  0
 32 63  1  0
 32 64  1  0
M  END
> <Name>
CHEMBL5277344

> <IC50 nM>
4610

> <Molecule_ChEMBL_ID>
CHEMBL5277344

> <Smiles>
COc1cc(C)c(C)cc1S(=O)(=O)Nc1ccc2c(c1)CCCN2C(=O)C1CCCCC1

$$$$
CHEMBL5269021
  SciTegic08162514323D

 58 61  0  0  0  0            999 V2000
    6.0860   -3.8690   -1.5020 Cl  0  0
    5.0530   -3.5140   -0.1740 C   0  0
    5.1660   -4.2070    1.0510 C   0  0
    4.0760   -2.5080   -0.3180 C   0  0
    4.3050   -3.8890    2.1170 C   0  0
    6.1820   -5.2790    1.2420 C   0  0
    3.2210   -2.1970    0.7520 C   0  0
    3.3320   -2.8850    1.9730 C   0  0
    2.0270   -0.9650    0.5610 S   0  0
    2.5310   -2.5940    2.9770 O   0  0
    2.2540   -0.3030   -0.7110 O   0  0
    2.1130   -0.0640    1.6970 O   0  0
    0.5250   -1.5720    0.5330 N   0  0
    2.6210   -3.3830    4.1540 C   0  0
   -0.5270   -0.7520    0.4020 C   0  0
   -1.8440   -1.2700    0.3910 C   0  0
   -0.3360    0.6450    0.2770 C   0  0
   -2.9630   -0.4100    0.2520 C   0  0
   -1.4430    1.5100    0.1410 C   0  0
   -2.7770    1.0040    0.1250 C   0  0
   -4.3220   -1.0120    0.2480 C   0  0
   -3.8550    1.8420   -0.0080 N   0  0
   -5.3340   -0.1250   -0.4860 C   0  0
   -3.7090    3.1990   -0.1700 C   0  0
   -5.2520    1.3180    0.0250 C   0  0
   -4.4180    3.9670    0.4380 O   0  0
   -2.6600    3.7010   -1.1070 C   0  0
   -2.0270    4.9340   -0.8610 C   0  0
   -2.3050    2.9450   -2.2380 C   0  0
   -1.0390    5.4060   -1.7440 C   0  0
   -1.3180    3.4180   -3.1210 C   0  0
   -0.6860    4.6490   -2.8750 C   0  0
    0.3590    5.1490   -3.8090 C   0  0
    0.5310    4.2460   -4.8260 F   0  0
    1.5410    5.3050   -3.1310 F   0  0
   -0.0330    6.3540   -4.3280 F   0  0
    3.9750   -1.9690   -1.2480 H   0  0
    4.3910   -4.4160    3.0570 H   0  0
    6.1680   -5.7380    2.2310 H   0  0
    7.1780   -4.8670    1.0800 H   0  0
    6.0240   -6.0660    0.5060 H   0  0
    0.3830   -2.5590    0.6110 H   0  0
    1.9160   -2.9880    4.8850 H   0  0
    2.4900   -4.4280    3.8750 H   0  0
    3.6250   -3.2720    4.5650 H   0  0
   -2.0080   -2.3340    0.4880 H   0  0
    0.6580    1.0680    0.2830 H   0  0
   -1.2380    2.5660    0.0490 H   0  0
   -4.3070   -2.0000   -0.2150 H   0  0
   -4.6390   -1.1520    1.2810 H   0  0
   -5.1370   -0.1480   -1.5590 H   0  0
   -6.3440   -0.5140   -0.3500 H   0  0
   -5.9080    1.9530   -0.5720 H   0  0
   -5.6150    1.3690    1.0530 H   0  0
   -2.2930    5.5220    0.0040 H   0  0
   -2.7870    1.9980   -2.4360 H   0  0
   -0.5570    6.3520   -1.5490 H   0  0
   -1.0510    2.8300   -3.9860 H   0  0
  1  2  1  0
  2  3  2  0
  2  4  1  0
  3  5  1  0
  3  6  1  0
  4  7  2  0
  5  8  2  0
  7  9  1  0
  8 10  1  0
  9 11  2  0
  9 12  2  0
  9 13  1  0
 10 14  1  0
 13 15  1  0
 15 16  2  0
 15 17  1  0
 16 18  1  0
 17 19  2  0
 18 20  2  0
 18 21  1  0
 20 22  1  0
 21 23  1  0
 22 24  1  0
 22 25  1  0
 24 26  2  0
 24 27  1  0
 27 28  2  0
 27 29  1  0
 28 30  1  0
 29 31  2  0
 30 32  2  0
 32 33  1  0
 33 34  1  0
 33 35  1  0
 33 36  1  0
  7  8  1  0
 19 20  1  0
 23 25  1  0
 31 32  1  0
  4 37  1  0
  5 38  1  0
  6 39  1  0
  6 40  1  0
  6 41  1  0
 13 42  1  0
 14 43  1  0
 14 44  1  0
 14 45  1  0
 16 46  1  0
 17 47  1  0
 19 48  1  0
 21 49  1  0
 21 50  1  0
 23 51  1  0
 23 52  1  0
 25 53  1  0
 25 54  1  0
 28 55  1  0
 29 56  1  0
 30 57  1  0
 31 58  1  0
M  END
> <Name>
CHEMBL5269021

> <IC50 nM>
300

> <Molecule_ChEMBL_ID>
CHEMBL5269021

> <Smiles>
COc1cc(C)c(Cl)cc1S(=O)(=O)Nc1ccc2c(c1)CCCN2C(=O)c1ccc(C(F)(F)F)cc1

$$$$
CHEMBL5266741
  SciTegic08162514323D

 58 62  0  0  0  0            999 V2000
    6.3280   -4.3500    4.5000 Br  0  0
    4.7070   -3.8890    3.6560 C   0  0
    4.2090   -4.6820    2.6040 C   0  0
    3.9900   -2.7520    4.0740 C   0  0
    3.0020   -4.3360    1.9730 C   0  0
    2.7830   -2.4080    3.4430 C   0  0
    2.2890   -3.2010    2.3930 C   0  0
    0.8070   -2.7770    1.6190 S   0  0
   -0.1930   -2.5430    2.6450 O   0  0
    0.4470   -3.8480    0.7030 O   0  0
    0.9410   -1.4180    0.7480 N   0  0
    2.3480   -1.0490    0.0350 S   0  0
   -0.1110   -0.5980    0.6190 C   0  0
    3.0650   -0.1470    0.9200 O   0  0
    3.0570   -2.2950   -0.2050 O   0  0
    2.1170   -0.2540   -1.4790 C   0  0
   -1.4280   -1.1170    0.6050 C   0  0
    0.0800    0.7970    0.4920 C   0  0
    2.5370    1.0760   -1.6450 C   0  0
    1.5100   -0.9400   -2.5450 C   0  0
   -2.5490   -0.2580    0.4690 C   0  0
   -1.0290    1.6620    0.3550 C   0  0
    2.3500    1.7230   -2.8770 C   0  0
    1.3200   -0.2930   -3.7790 C   0  0
   -2.3610    1.1560    0.3420 C   0  0
   -3.9060   -0.8590    0.4630 C   0  0
    1.7400    1.0410   -3.9470 C   0  0
   -3.4390    1.9960    0.2110 N   0  0
   -4.9220    0.0270   -0.2660 C   0  0
    1.4860    1.9080   -5.6020 Br  0  0
   -3.2930    3.3530    0.0550 C   0  0
   -4.8360    1.4730    0.2380 C   0  0
   -3.9960    4.1230    0.6680 O   0  0
   -2.2830    3.8610   -0.8630 C   0  0
   -1.8030    5.1190   -0.6520 O   0  0
   -1.7130    3.2280   -1.9710 C   0  0
   -0.8960    5.2850   -1.6600 C   0  0
   -0.8110    4.1580   -2.4880 C   0  0
    4.7460   -5.5570    2.2680 H   0  0
    4.3580   -2.1330    4.8810 H   0  0
    2.6210   -4.9450    1.1660 H   0  0
    2.2340   -1.5350    3.7660 H   0  0
   -1.5920   -2.1820    0.7030 H   0  0
    1.0760    1.2210    0.4980 H   0  0
    3.0040    1.6020   -0.8240 H   0  0
    1.1880   -1.9630   -2.4180 H   0  0
   -0.8240    2.7210    0.2640 H   0  0
    2.6800    2.7460   -2.9900 H   0  0
    0.8500   -0.8320   -4.5880 H   0  0
   -3.8910   -1.8460   -0.0060 H   0  0
   -4.2210   -1.0080    1.4960 H   0  0
   -4.7320    0.0000   -1.3400 H   0  0
   -5.9320   -0.3610   -0.1230 H   0  0
   -5.4840    2.1050   -0.3710 H   0  0
   -5.2090    1.5330    1.2620 H   0  0
   -1.9240    2.2360   -2.3460 H   0  0
   -0.3200    6.1890   -1.7930 H   0  0
   -0.1720    4.0350   -3.3540 H   0  0
  1  2  1  0
  2  3  2  0
  2  4  1  0
  3  5  1  0
  4  6  2  0
  5  7  2  0
  7  8  1  0
  8  9  2  0
  8 10  2  0
  8 11  1  0
 11 12  1  0
 11 13  1  0
 12 14  2  0
 12 15  2  0
 12 16  1  0
 13 17  2  0
 13 18  1  0
 16 19  2  0
 16 20  1  0
 17 21  1  0
 18 22  2  0
 19 23  1  0
 20 24  2  0
 21 25  2  0
 21 26  1  0
 23 27  2  0
 25 28  1  0
 26 29  1  0
 27 30  1  0
 28 31  1  0
 28 32  1  0
 31 33  2  0
 31 34  1  0
 34 35  1  0
 34 36  2  0
 35 37  1  0
 36 38  1  0
  6  7  1  0
 22 25  1  0
 24 27  1  0
 29 32  1  0
 37 38  2  0
  3 39  1  0
  4 40  1  0
  5 41  1  0
  6 42  1  0
 17 43  1  0
 18 44  1  0
 19 45  1  0
 20 46  1  0
 22 47  1  0
 23 48  1  0
 24 49  1  0
 26 50  1  0
 26 51  1  0
 29 52  1  0
 29 53  1  0
 32 54  1  0
 32 55  1  0
 36 56  1  0
 37 57  1  0
 38 58  1  0
M  END
> <Name>
CHEMBL5266741

> <IC50 nM>
25000

> <Molecule_ChEMBL_ID>
CHEMBL5266741

> <Smiles>
O=C(c1ccco1)N1CCCc2cc(N(S(=O)(=O)c3ccc(Br)cc3)S(=O)(=O)c3ccc(Br)cc3)ccc21

$$$$
CHEMBL5289825
  SciTegic08162514323D

 64 70  0  0  0  0            999 V2000
    0.5410   -1.8810    0.6800 S   0  0
   -0.6150   -2.0960    1.5310 O   0  0
    0.7070   -2.9080   -0.3320 O   0  0
    0.3240   -0.4710   -0.0880 N   0  0
    1.9390   -1.8650    1.6640 C   0  0
    1.6990    0.0860   -0.7360 S   0  0
   -0.8130    0.2270   -0.2270 C   0  0
    3.1580   -3.1130    1.6050 S   0  0
    2.0860   -0.7770    2.5550 C   0  0
    1.3460    0.8710   -1.9060 O   0  0
    2.3830    0.8600    0.2870 O   0  0
    2.7340   -1.1810   -1.2330 C   0  0
   -2.0610   -0.4370   -0.2750 C   0  0
   -0.7790    1.6370   -0.3240 C   0  0
    3.9080   -2.1680    2.8140 C   0  0
    3.2750   -1.0000    3.2230 C   0  0
    2.3010   -2.3380   -2.4650 S   0  0
    3.9920   -1.2690   -0.5940 C   0  0
   -3.2700    0.2910   -0.4200 C   0  0
   -1.9770    2.3730   -0.4690 C   0  0
    5.1410   -2.5290    3.4120 C   0  0
    3.8200   -0.1500    4.2170 C   0  0
    3.8480   -2.9800   -2.1370 C   0  0
    4.6250   -2.3590   -1.1660 C   0  0
   -3.2440    1.7210   -0.5200 C   0  0
   -4.5510   -0.4590   -0.4710 C   0  0
    5.7130   -1.7030    4.4100 C   0  0
    5.0530   -0.5130    4.8120 C   0  0
    4.3630   -4.1150   -2.8110 C   0  0
    5.9200   -2.8180   -0.8240 C   0  0
   -4.4080    2.4360   -0.6560 N   0  0
   -5.7330    0.4030   -0.0120 C   0  0
    5.6560   -4.5990   -2.4900 C   0  0
    6.4340   -3.9510   -1.4980 C   0  0
   -4.4180    3.8070   -0.7340 C   0  0
   -5.7330    1.7520   -0.7380 C   0  0
   -3.5530    4.4550   -0.1900 O   0  0
   -5.4810    4.4690   -1.4770 C   0  0
   -6.0670    3.7830   -2.4960 O   0  0
   -6.0080    5.7500   -1.2930 C   0  0
   -6.9980    4.6620   -2.9730 C   0  0
   -6.9960    5.8730   -2.2700 C   0  0
    1.4040    0.0530    2.6820 H   0  0
   -2.1040   -1.5150   -0.2030 H   0  0
    0.1600    2.1700   -0.2910 H   0  0
    4.3750   -0.6170    0.1800 H   0  0
   -1.8910    3.4490   -0.5390 H   0  0
    5.6450   -3.4350    3.1050 H   0  0
    3.3140    0.7540    4.5200 H   0  0
   -4.7150   -0.7910   -1.4980 H   0  0
   -4.5000   -1.3570    0.1460 H   0  0
    6.6520   -1.9780    4.8670 H   0  0
    5.4900    0.1150    5.5740 H   0  0
    3.7720   -4.6090   -3.5670 H   0  0
    6.5100   -2.3200   -0.0660 H   0  0
   -5.6740    0.5650    1.0660 H   0  0
   -6.6720   -0.1210   -0.1920 H   0  0
    6.0490   -5.4650   -3.0040 H   0  0
    7.4180   -4.3220   -1.2560 H   0  0
   -5.9830    1.6100   -1.7890 H   0  0
   -6.5120    2.3890   -0.3150 H   0  0
   -5.7150    6.4850   -0.5550 H   0  0
   -7.6560    4.4360   -3.8030 H   0  0
   -7.6330    6.7310   -2.4470 H   0  0
  1  2  2  0
  1  3  2  0
  1  4  1  0
  1  5  1  0
  4  6  1  0
  4  7  1  0
  5  8  1  0
  5  9  2  0
  6 10  2  0
  6 11  2  0
  6 12  1  0
  7 13  2  0
  7 14  1  0
  8 15  1  0
  9 16  1  0
 12 17  1  0
 12 18  2  0
 13 19  1  0
 14 20  2  0
 15 21  1  0
 16 22  1  0
 17 23  1  0
 18 24  1  0
 19 25  2  0
 19 26  1  0
 21 27  2  0
 22 28  2  0
 23 29  1  0
 24 30  1  0
 25 31  1  0
 26 32  1  0
 29 33  2  0
 30 34  2  0
 31 35  1  0
 31 36  1  0
 35 37  2  0
 35 38  1  0
 38 39  1  0
 38 40  2  0
 39 41  1  0
 40 42  1  0
 15 16  2  0
 20 25  1  0
 23 24  2  0
 27 28  1  0
 32 36  1  0
 33 34  1  0
 41 42  2  0
  9 43  1  0
 13 44  1  0
 14 45  1  0
 18 46  1  0
 20 47  1  0
 21 48  1  0
 22 49  1  0
 26 50  1  0
 26 51  1  0
 27 52  1  0
 28 53  1  0
 29 54  1  0
 30 55  1  0
 32 56  1  0
 32 57  1  0
 33 58  1  0
 34 59  1  0
 36 60  1  0
 36 61  1  0
 40 62  1  0
 41 63  1  0
 42 64  1  0
M  END
> <Name>
CHEMBL5289825

> <IC50 nM>
3190

> <Molecule_ChEMBL_ID>
CHEMBL5289825

> <Smiles>
O=C(c1ccco1)N1CCCc2cc(N(S(=O)(=O)c3cc4ccccc4s3)S(=O)(=O)c3cc4ccccc4s3)ccc21

$$$$
CHEMBL5272204
  SciTegic08162514323D

 78 84  0  0  0  0            999 V2000
    0.1620    2.3580    2.4200 S   0  0
    0.7720    2.3030    3.7360 O   0  0
    0.3150    3.6500    1.7730 O   0  0
    0.9060    1.2580    1.4920 N   0  0
   -1.5100    2.0330    2.5840 C   0  0
    2.4920    1.1720    1.8070 S   0  0
    0.3650    0.4690    0.5510 C   0  0
   -2.4450    3.0880    2.5040 C   0  0
   -1.9550    0.7090    2.8030 C   0  0
    2.8990    2.4490    2.3650 O   0  0
    2.6970    0.0590    2.7190 O   0  0
    3.4140    0.8850    0.3950 C   0  0
   -0.7890    0.8830   -0.1540 C   0  0
    0.9430   -0.7850    0.2520 C   0  0
   -3.8340    2.8300    2.6410 C   0  0
   -3.3360    0.4410    2.9340 C   0  0
    4.5180    0.0060    0.4370 C   0  0
    3.0720    1.5290   -0.8160 C   0  0
   -1.3710    0.0550   -1.1480 C   0  0
    0.3730   -1.6190   -0.7360 C   0  0
   -4.2850    1.4920    2.8520 C   0  0
   -4.7870    3.9710    2.5680 C   0  0
    5.2890   -0.2400   -0.7270 C   0  0
    3.8300    1.2890   -1.9820 C   0  0
   -0.7910   -1.2190   -1.4570 C   0  0
   -2.5820    0.5410   -1.8570 C   0  0
   -5.7310    1.1680    2.9790 C   0  0
   -6.2480    3.5530    2.3420 C   0  0
    4.9380    0.4040   -1.9530 C   0  0
    6.4550   -1.1600   -0.6370 C   0  0
   -1.3460   -2.0250   -2.4200 N   0  0
   -3.4200   -0.6150   -2.4140 C   0  0
   -6.6210    2.3890    3.2640 C   0  0
    5.7010    0.1620   -3.2070 C   0  0
    6.9750   -1.6480   -1.9980 C   0  0
   -0.8360   -3.2680   -2.7130 C   0  0
   -2.5350   -1.5860   -3.2050 C   0  0
    7.0800   -0.4820   -2.9820 C   0  0
   -0.7210   -3.6230   -3.8610 O   0  0
   -0.4370   -4.1460   -1.6230 C   0  0
   -1.0330   -3.9690   -0.4100 O   0  0
    0.4980   -5.1820   -1.6350 C   0  0
   -0.4510   -4.9280    0.3690 C   0  0
    0.4880   -5.6890   -0.3360 C   0  0
   -2.0980    4.0980    2.3400 H   0  0
   -1.2400   -0.1000    2.8670 H   0  0
   -1.2420    1.8400    0.0620 H   0  0
    1.8260   -1.1270    0.7750 H   0  0
   -3.6640   -0.5740    3.0980 H   0  0
    4.7760   -0.4820    1.3670 H   0  0
    2.2310    2.2050   -0.8520 H   0  0
    0.8570   -2.5660   -0.9260 H   0  0
   -4.7150    4.5270    3.5040 H   0  0
   -4.4860    4.6600    1.7770 H   0  0
    3.5590    1.7850   -2.9040 H   0  0
   -3.2010    1.1490   -1.1930 H   0  0
   -2.2660    1.1910   -2.6740 H   0  0
   -5.8830    0.4240    3.7620 H   0  0
   -6.0530    0.7010    2.0450 H   0  0
   -6.3930    3.2560    1.3030 H   0  0
   -6.9080    4.4010    2.5180 H   0  0
    7.2580   -0.6330   -0.1170 H   0  0
    6.2030   -2.0230   -0.0200 H   0  0
   -3.9060   -1.1460   -1.5940 H   0  0
   -4.2190   -0.2300   -3.0470 H   0  0
   -6.5060    2.6950    4.3030 H   0  0
   -7.6700    2.1230    3.1330 H   0  0
    5.8300    1.0980   -3.7540 H   0  0
    5.1020   -0.4880   -3.8460 H   0  0
    6.3010   -2.4060   -2.4020 H   0  0
    7.9440   -2.1290   -1.8750 H   0  0
   -3.1270   -2.4490   -3.5100 H   0  0
   -2.1840   -1.1030   -4.1190 H   0  0
    7.7780    0.2620   -2.5940 H   0  0
    7.4900   -0.8220   -3.9340 H   0  0
    1.1020   -5.5200   -2.4690 H   0  0
   -0.6990   -5.0700    1.4140 H   0  0
    1.0840   -6.5060    0.0510 H   0  0
  1  2  2  0
  1  3  2  0
  1  4  1  0
  1  5  1  0
  4  6  1  0
  4  7  1  0
  5  8  2  0
  5  9  1  0
  6 10  2  0
  6 11  2  0
  6 12  1  0
  7 13  2  0
  7 14  1  0
  8 15  1  0
  9 16  2  0
 12 17  2  0
 12 18  1  0
 13 19  1  0
 14 20  2  0
 15 21  2  0
 15 22  1  0
 17 23  1  0
 18 24  2  0
 19 25  2  0
 19 26  1  0
 21 27  1  0
 22 28  1  0
 23 29  2  0
 23 30  1  0
 25 31  1  0
 26 32  1  0
 27 33  1  0
 29 34  1  0
 30 35  1  0
 31 36  1  0
 31 37  1  0
 34 38  1  0
 36 39  2  0
 36 40  1  0
 40 41  1  0
 40 42  2  0
 41 43  1  0
 42 44  1  0
 16 21  1  0
 20 25  1  0
 24 29  1  0
 28 33  1  0
 32 37  1  0
 35 38  1  0
 43 44  2  0
  8 45  1  0
  9 46  1  0
 13 47  1  0
 14 48  1  0
 16 49  1  0
 17 50  1  0
 18 51  1  0
 20 52  1  0
 22 53  1  0
 22 54  1  0
 24 55  1  0
 26 56  1  0
 26 57  1  0
 27 58  1  0
 27 59  1  0
 28 60  1  0
 28 61  1  0
 30 62  1  0
 30 63  1  0
 32 64  1  0
 32 65  1  0
 33 66  1  0
 33 67  1  0
 34 68  1  0
 34 69  1  0
 35 70  1  0
 35 71  1  0
 37 72  1  0
 37 73  1  0
 38 74  1  0
 38 75  1  0
 42 76  1  0
 43 77  1  0
 44 78  1  0
M  END
> <Name>
CHEMBL5272204

> <IC50 nM>
7990

> <Molecule_ChEMBL_ID>
CHEMBL5272204

> <Smiles>
O=C(c1ccco1)N1CCCc2cc(N(S(=O)(=O)c3ccc4c(c3)CCCC4)S(=O)(=O)c3ccc4c(c3)CCCC4)ccc21

$$$$
CHEMBL302248
  SciTegic08162514323D

 51 53  0  0  0  0            999 V2000
   -0.2190    3.1800    1.9280 Cl  0  0
   -1.9140    2.9080    1.8240 C   0  0
   -2.4570    1.6050    1.9120 C   0  0
   -2.7740    4.0100    1.6460 C   0  0
   -3.8480    1.4220    1.8220 C   0  0
   -1.5840    0.4140    2.1020 C   0  0
   -4.1620    3.8180    1.5570 C   0  0
   -4.6990    2.5230    1.6450 C   0  0
   -1.2930   -0.2520    0.8220 N   0  0
   -0.6150    0.4020   -0.1760 C   0  0
   -1.7400   -1.6370    0.6230 C   0  0
    0.7990    0.4240   -0.2110 C   0  0
   -1.3520    1.0600   -1.1780 C   0  0
   -0.6110   -2.5280    0.2460 C   0  0
    1.4630    1.1090   -1.2580 C   0  0
    1.5900   -0.2740    0.8520 C   0  0
   -0.6900    1.7360   -2.2130 C   0  0
   -0.1860   -2.5980   -1.0920 C   0  0
    0.0310   -3.3010    1.2280 C   0  0
    2.8320    1.1520   -1.3240 N   0  0
    0.7130    1.7620   -2.2540 C   0  0
    0.8830   -3.4400   -1.4470 C   0  0
    1.1000   -4.1430    0.8730 C   0  0
    3.6860   -0.2250   -1.3650 S   0  0
    1.5250   -4.2130   -0.4650 C   0  0
    4.2710   -0.4140   -0.0490 O   0  0
    2.7750   -1.2910   -1.7460 O   0  0
    5.0000   -0.1290   -2.5740 C   0  0
   -2.3750    5.0140    1.5780 H   0  0
   -4.2720    0.4300    1.8910 H   0  0
   -0.6490    0.7190    2.5680 H   0  0
   -2.0760   -0.2930    2.7700 H   0  0
   -4.8170    4.6660    1.4180 H   0  0
   -5.7660    2.3770    1.5740 H   0  0
   -2.4980   -1.6600   -0.1620 H   0  0
   -2.2010   -2.0020    1.5410 H   0  0
   -2.4340    1.0550   -1.1680 H   0  0
    1.9750   -1.2150    0.4590 H   0  0
    2.3770    0.3880    1.2110 H   0  0
    0.9390   -0.5060    1.6950 H   0  0
   -1.2600    2.2400   -2.9810 H   0  0
   -0.6760   -2.0060   -1.8520 H   0  0
   -0.2890   -3.2540    2.2580 H   0  0
    3.3050    2.0330   -1.3500 H   0  0
    1.2010    2.2910   -3.0610 H   0  0
    1.2090   -3.4920   -2.4770 H   0  0
    1.5940   -4.7390    1.6270 H   0  0
    2.3460   -4.8600   -0.7380 H   0  0
    5.6090   -1.0300   -2.6450 H   0  0
    5.6600    0.7010   -2.3260 H   0  0
    4.5740    0.0640   -3.5590 H   0  0
  1  2  1  0
  2  3  2  0
  2  4  1  0
  3  5  1  0
  3  6  1  0
  4  7  2  0
  5  8  2  0
  6  9  1  0
  9 10  1  0
  9 11  1  0
 10 12  2  0
 10 13  1  0
 11 14  1  0
 12 15  1  0
 12 16  1  0
 13 17  2  0
 14 18  2  0
 14 19  1  0
 15 20  1  0
 15 21  2  0
 18 22  1  0
 19 23  2  0
 20 24  1  0
 22 25  2  0
 24 26  2  0
 24 27  2  0
 24 28  1  0
  7  8  1  0
 17 21  1  0
 23 25  1  0
  4 29  1  0
  5 30  1  0
  6 31  1  0
  6 32  1  0
  7 33  1  0
  8 34  1  0
 11 35  1  0
 11 36  1  0
 13 37  1  0
 16 38  1  0
 16 39  1  0
 16 40  1  0
 17 41  1  0
 18 42  1  0
 19 43  1  0
 20 44  1  0
 21 45  1  0
 22 46  1  0
 23 47  1  0
 25 48  1  0
 28 49  1  0
 28 50  1  0
 28 51  1  0
M  END
> <Name>
CHEMBL302248

> <IC50 nM>
36

> <Molecule_ChEMBL_ID>
CHEMBL302248

> <Smiles>
Cc1c(NS(C)(=O)=O)cccc1N(Cc1ccccc1)Cc1ccccc1Cl

$$$$
CHEMBL65021
  SciTegic08162514323D

 46 49  0  0  1  0            999 V2000
   -4.4470   -1.6310    0.6760 S   0  0
   -4.2460   -2.4670   -0.4960 O   0  0
   -4.0800   -2.2870    1.9180 O   0  0
   -3.4960   -0.3280    0.5140 N   0  0
   -6.1700   -1.1600    0.7600 C   0  0
   -2.1640   -0.4730    0.4570 C   0  0
   -1.3240    0.6580    0.3380 C   0  0
   -1.5840   -1.7600    0.5120 C   0  0
    0.0920    0.5180    0.2770 C   0  0
   -0.1810   -1.9160    0.4650 C   0  0
    0.6780   -0.7810    0.3770 C   0  0
    0.9810    1.7170    0.1350 C   0  0  1  0  0  0
    2.1600   -0.8950    0.3790 C   0  0
    2.2870    1.4000   -0.3650 O   0  0
    0.4160    2.7640   -0.7680 C   0  0
    2.9050    0.2460   -0.0430 C   0  0
    2.8790   -2.0700    0.7700 C   0  0
    0.3520    2.5390   -2.1540 C   0  0
   -0.0530    3.9770   -0.2320 C   0  0
    4.3130    0.1930   -0.1440 C   0  0
    2.2760   -3.1660    1.2520 O   0  0
    4.2910   -2.1080    0.6720 C   0  0
   -0.1800    3.5250   -3.0040 C   0  0
   -0.5840    4.9630   -1.0820 C   0  0
    5.0060   -0.9830    0.2090 C   0  0
    2.9770   -4.3990    1.1820 C   0  0
   -0.6460    4.7360   -2.4670 C   0  0
   -3.9040    0.5820    0.4550 H   0  0
   -6.8590   -1.9960    0.8690 H   0  0
   -6.4430   -0.6190   -0.1460 H   0  0
   -6.3220   -0.4900    1.6060 H   0  0
   -1.7670    1.6430    0.2950 H   0  0
   -2.2030   -2.6430    0.5920 H   0  0
    0.1860   -2.9280    0.4940 H   0  0
    1.1060    2.1540    1.1270 H   0  0
    0.7090    1.6090   -2.5720 H   0  0
   -0.0060    4.1580    0.8320 H   0  0
    4.8640    1.0550   -0.4900 H   0  0
    4.8280   -3.0000    0.9550 H   0  0
   -0.2280    3.3520   -4.0680 H   0  0
   -0.9430    5.8950   -0.6700 H   0  0
    6.0820   -1.0240    0.1290 H   0  0
    2.2830   -5.1990    1.4430 H   0  0
    3.4470   -4.4690    0.2030 H   0  0
    3.7680   -4.3850    1.9320 H   0  0
   -1.0550    5.4940   -3.1210 H   0  0
  1  2  2  0
  1  3  2  0
  1  4  1  0
  1  5  1  0
  4  6  1  0
  6  7  2  0
  6  8  1  0
  7  9  1  0
  8 10  2  0
  9 11  2  0
  9 12  1  0
 11 13  1  0
 12 14  1  0
 12 15  1  0
 13 16  2  0
 13 17  1  0
 15 18  2  0
 15 19  1  0
 16 20  1  0
 17 21  1  0
 17 22  2  0
 18 23  1  0
 19 24  2  0
 20 25  2  0
 21 26  1  0
 23 27  2  0
 10 11  1  0
 14 16  1  0
 22 25  1  0
 24 27  1  0
  4 28  1  0
  5 29  1  0
  5 30  1  0
  5 31  1  0
  7 32  1  0
  8 33  1  0
 10 34  1  0
 12 35  1  0
 18 36  1  0
 19 37  1  0
 20 38  1  0
 22 39  1  0
 23 40  1  0
 24 41  1  0
 25 42  1  0
 26 43  1  0
 26 44  1  0
 26 45  1  0
 27 46  1  0
M  END
> <Name>
CHEMBL65021

> <IC50 nM>
19

> <Molecule_ChEMBL_ID>
CHEMBL65021

> <Smiles>
COc1cccc2c1-c1ccc(NS(C)(=O)=O)cc1C(c1ccccc1)O2

$$$$
CHEMBL4078531
  SciTegic08162514323D

 73 77  0  0  1  0            999 V2000
   -8.4840   -2.2130    1.7740 F   0  0
   -7.4840   -1.2910    1.6110 C   0  0
   -7.2210   -0.6850    2.8130 F   0  0
   -6.2420   -1.9490    1.0720 C   0  0
   -7.9220   -0.2360    0.5940 C   0  0
   -5.7710   -1.6150    0.0100 O   0  0
   -5.6520   -2.9370    1.8070 N   0  0
   -4.4390   -3.5920    1.2950 C   0  0  2  0  0  0
   -3.2710   -2.6070    1.2310 C   0  0  2  0  0  0
   -4.7110   -4.2750   -0.0470 C   0  0
   -2.1230   -3.2680    0.7210 O   0  0
   -2.9630   -2.0370    2.5690 C   0  0
   -0.9860   -2.5660    0.6190 C   0  0
   -3.3420   -0.7190    2.8770 C   0  0
   -2.2910   -2.8180    3.5280 C   0  0
    0.2620   -3.2420    0.5880 C   0  0
   -1.0350   -1.1480    0.5410 C   0  0
   -3.0490   -0.1820    4.1410 C   0  0
   -1.9980   -2.2790    4.7910 C   0  0
    1.4590   -2.4860    0.4810 C   0  0
    0.1620   -0.3980    0.4340 C   0  0
   -2.3770   -0.9610    5.1000 C   0  0
    1.3850   -1.1090    0.4080 C   0  0
    2.7130   -3.0760    0.4450 C   0  0
    2.6920   -0.7540    0.3170 N   0  0
    3.4420   -1.9100    0.3400 N   0  0
    3.1900    0.5060    0.2190 C   0  0
    4.2380    0.7850   -0.6800 C   0  0
    2.6580    1.5370    1.0180 C   0  0
    4.7520    2.0920   -0.7790 C   0  0
    3.1740    2.8420    0.9180 C   0  0
    5.8630    2.3890   -1.7320 C   0  0
    4.2190    3.1190    0.0200 C   0  0
    6.9440    1.8600   -1.6110 O   0  0
    5.6390    3.2970   -2.7810 N   0  0
    4.3630    3.9450   -3.0180 C   0  0  2  0  0  0
    6.6700    3.6820   -3.7250 C   0  0
    3.3400    2.9650   -3.5370 C   0  0
    4.7070    5.0370   -4.0390 C   0  0
    5.9180    4.4650   -4.8010 C   0  0
    2.2150    2.9450   -3.0940 O   0  0
    3.7090    2.0940   -4.5210 N   0  0
   -8.8200    0.2890    0.9160 H   0  0
   -8.1310   -0.6950   -0.3710 H   0  0
   -7.1370    0.5060    0.4470 H   0  0
   -6.0430   -3.2130    2.6860 H   0  0
   -4.1930   -4.4410    1.9320 H   0  0
   -3.5350   -1.8030    0.5450 H   0  0
   -5.6130   -4.8810    0.0060 H   0  0
   -4.8240   -3.5350   -0.8400 H   0  0
   -3.8830   -4.9300   -0.3180 H   0  0
   -3.8570   -0.1150    2.1450 H   0  0
   -1.9960   -3.8320    3.2970 H   0  0
    0.2890   -4.3200    0.6490 H   0  0
   -1.9860   -0.6390    0.5630 H   0  0
   -3.3400    0.8320    4.3770 H   0  0
   -1.4820   -2.8770    5.5280 H   0  0
    0.1390    0.6800    0.3750 H   0  0
   -2.1520   -0.5470    6.0710 H   0  0
    3.0650   -4.0980    0.4840 H   0  0
    4.6540    0.0020   -1.2990 H   0  0
    1.8540    1.3440    1.7130 H   0  0
    2.7660    3.6310    1.5290 H   0  0
    4.6080    4.1250   -0.0510 H   0  0
    3.9940    4.3890   -2.1010 H   0  0
    7.3990    4.3050   -3.2270 H   0  0
    7.1760    2.8170   -4.1310 H   0  0
    3.8870    5.2910   -4.6930 H   0  0
    5.0020    5.9420   -3.5210 H   0  0
    5.5800    3.7990   -5.5820 H   0  0
    6.5240    5.2350   -5.2580 H   0  0
    3.0650    1.4340   -4.9100 H   0  0
    4.6430    2.1000   -4.8750 H   0  0
  1  2  1  0
  2  3  1  0
  2  4  1  0
  2  5  1  0
  4  6  2  0
  4  7  1  0
  7  8  1  0
  8  9  1  0
  8 10  1  0
  9 11  1  0
  9 12  1  0
 11 13  1  0
 12 14  2  0
 12 15  1  0
 13 16  2  0
 13 17  1  0
 14 18  1  0
 15 19  2  0
 16 20  1  0
 17 21  2  0
 18 22  2  0
 20 23  2  0
 20 24  1  0
 23 25  1  0
 24 26  2  0
 25 27  1  0
 27 28  2  0
 27 29  1  0
 28 30  1  0
 29 31  2  0
 30 32  1  0
 30 33  2  0
 32 34  2  0
 32 35  1  0
 35 36  1  0
 35 37  1  0
 36 38  1  0
 36 39  1  0
 37 40  1  0
 38 41  2  0
 38 42  1  0
 19 22  1  0
 21 23  1  0
 25 26  1  0
 31 33  1  0
 39 40  1  0
  5 43  1  0
  5 44  1  0
  5 45  1  0
  7 46  1  0
  8 47  1  0
  9 48  1  0
 10 49  1  0
 10 50  1  0
 10 51  1  0
 14 52  1  0
 15 53  1  0
 16 54  1  0
 17 55  1  0
 18 56  1  0
 19 57  1  0
 21 58  1  0
 22 59  1  0
 24 60  1  0
 28 61  1  0
 29 62  1  0
 31 63  1  0
 33 64  1  0
 36 65  1  0
 37 66  1  0
 37 67  1  0
 39 68  1  0
 39 69  1  0
 40 70  1  0
 40 71  1  0
 42 72  1  0
 42 73  1  0
M  END
> <Name>
CHEMBL4078531

> <IC50 nM>
17

> <Molecule_ChEMBL_ID>
CHEMBL4078531

> <Smiles>
C[C@H](NC(=O)C(C)(F)F)[C@H](Oc1ccc2c(cnn2-c2cccc(C(=O)N3CCC[C@H]3C(N)=O)c2)c1)c1ccccc1

$$$$
CHEMBL4098641
  SciTegic08162514323D

 79 84  0  0  1  0            999 V2000
   -0.8810    3.1250   -7.9860 F   0  0
    0.4490    3.3150   -8.2580 C   0  0
    0.8030    4.5980   -7.9280 F   0  0
    1.2890    2.3240   -7.4940 C   0  0
    0.7050    3.0820   -9.7460 C   0  0
    1.9980    1.5350   -8.0720 O   0  0
    1.2340    2.3320   -6.1290 N   0  0
    2.0470    1.3730   -5.3690 C   0  0  2  0  0  0
    1.4490    1.1250   -3.9840 C   0  0  2  0  0  0
    3.5080    1.8180   -5.3110 C   0  0
    2.3360    0.3160   -3.2250 O   0  0
    0.1370    0.4690   -4.0700 C   0  0
    1.9790   -0.0040   -1.9730 C   0  0
   -1.0330    1.1780   -3.7090 C   0  0
    0.0430   -0.8730   -4.5140 C   0  0
    2.5720   -1.1250   -1.3320 C   0  0
    1.0100    0.7810   -1.2910 C   0  0
   -2.2970    0.5450   -3.7930 C   0  0
   -1.2190   -1.5080   -4.5960 C   0  0
    2.1860   -1.4510   -0.0060 C   0  0
    0.6270    0.4490    0.0330 C   0  0
   -3.4180    1.2110   -3.4430 O   0  0
   -2.3930   -0.8030   -4.2360 C   0  0
    1.2400   -0.6740    0.6350 C   0  0
    2.7190   -2.5290    0.6820 C   0  0
   -4.7070    0.6370   -3.7150 C   0  0
   -3.7300   -1.4490   -4.3200 C   0  0
    1.1390   -1.2810    1.8440 N   0  0
    2.0040   -2.3540    1.8480 N   0  0
   -4.6970   -0.7730   -3.5200 O   0  0
    0.3340   -0.9160    2.8750 C   0  0
    0.8220   -0.9390    4.1950 C   0  0
   -0.9920   -0.5120    2.6250 C   0  0
   -0.0120   -0.5590    5.2640 C   0  0
   -1.8240   -0.1330    3.6930 C   0  0
    0.5060   -0.5820    6.6640 C   0  0
   -1.3360   -0.1540    5.0100 C   0  0
    1.5390   -0.0270    6.9530 O   0  0
   -0.2260   -1.2660    7.6500 N   0  0
    0.1640   -1.3240    9.0490 C   0  0  1  0  0  0
   -1.4470   -1.9920    7.3610 C   0  0
    0.5290    0.0230    9.6230 C   0  0
   -1.0530   -1.9590    9.7340 C   0  0
   -1.6910   -2.8160    8.6270 C   0  0
   -0.0250    1.0290    9.2480 O   0  0
    1.5000    0.0860   10.5800 N   0  0
    0.1290    3.7660  -10.3690 H   0  0
    0.4340    2.0640  -10.0290 H   0  0
    1.7600    3.2230   -9.9830 H   0  0
    0.6470    2.9860   -5.6520 H   0  0
    2.1190    0.4410   -5.9300 H   0  0
    1.3440    2.0840   -3.4770 H   0  0
    3.9080    1.9570   -6.3150 H   0  0
    3.6060    2.7520   -4.7560 H   0  0
    4.1190    1.0680   -4.8110 H   0  0
   -0.9690    2.2010   -3.3690 H   0  0
    0.9360   -1.4180   -4.7890 H   0  0
    3.3090   -1.7150   -1.8590 H   0  0
    0.5630    1.6330   -1.7810 H   0  0
   -1.2810   -2.5330   -4.9360 H   0  0
   -0.1070    1.0370    0.5610 H   0  0
    3.4530   -3.2870    0.4390 H   0  0
   -5.4470    1.0960   -3.0610 H   0  0
   -4.9790    0.8500   -4.7520 H   0  0
   -4.0720   -1.4380   -5.3580 H   0  0
   -3.6890   -2.4880   -3.9920 H   0  0
    1.8400   -1.2480    4.4000 H   0  0
   -1.3850   -0.4860    1.6190 H   0  0
   -2.8400    0.1780    3.5000 H   0  0
   -1.9820    0.1390    5.8240 H   0  0
    1.0160   -1.9860    9.1330 H   0  0
   -2.2500   -1.2910    7.1910 H   0  0
   -1.3380   -2.6170    6.4860 H   0  0
   -0.7850   -2.5410   10.6040 H   0  0
   -1.7560   -1.2010   10.0490 H   0  0
   -2.7400   -3.0100    8.8010 H   0  0
   -1.1850   -3.7700    8.5570 H   0  0
    1.7810    0.9550   10.9900 H   0  0
    1.9550   -0.7480   10.8930 H   0  0
  1  2  1  0
  2  3  1  0
  2  4  1  0
  2  5  1  0
  4  6  2  0
  4  7  1  0
  7  8  1  0
  8  9  1  0
  8 10  1  0
  9 11  1  0
  9 12  1  0
 11 13  1  0
 12 14  2  0
 12 15  1  0
 13 16  2  0
 13 17  1  0
 14 18  1  0
 15 19  2  0
 16 20  1  0
 17 21  2  0
 18 22  1  0
 18 23  2  0
 20 24  2  0
 20 25  1  0
 22 26  1  0
 23 27  1  0
 24 28  1  0
 25 29  2  0
 26 30  1  0
 28 31  1  0
 31 32  2  0
 31 33  1  0
 32 34  1  0
 33 35  2  0
 34 36  1  0
 34 37  2  0
 36 38  2  0
 36 39  1  0
 39 40  1  0
 39 41  1  0
 40 42  1  0
 40 43  1  0
 41 44  1  0
 42 45  2  0
 42 46  1  0
 19 23  1  0
 21 24  1  0
 27 30  1  0
 28 29  1  0
 35 37  1  0
 43 44  1  0
  5 47  1  0
  5 48  1  0
  5 49  1  0
  7 50  1  0
  8 51  1  0
  9 52  1  0
 10 53  1  0
 10 54  1  0
 10 55  1  0
 14 56  1  0
 15 57  1  0
 16 58  1  0
 17 59  1  0
 19 60  1  0
 21 61  1  0
 25 62  1  0
 26 63  1  0
 26 64  1  0
 27 65  1  0
 27 66  1  0
 32 67  1  0
 33 68  1  0
 35 69  1  0
 37 70  1  0
 40 71  1  0
 41 72  1  0
 41 73  1  0
 43 74  1  0
 43 75  1  0
 44 76  1  0
 44 77  1  0
 46 78  1  0
 46 79  1  0
M  END
> <Name>
CHEMBL4098641

> <IC50 nM>
0.61

> <Molecule_ChEMBL_ID>
CHEMBL4098641

> <Smiles>
C[C@H](NC(=O)C(C)(F)F)[C@H](Oc1ccc2c(cnn2-c2cccc(C(=O)N3CCC[C@@H]3C(N)=O)c2)c1)c1ccc2c(c1)OCOC2

$$$$
CHEMBL3666810
  SciTegic08162514323D

 76 81  0  0  1  0            999 V2000
   -2.1350    3.1100   -6.9880 F   0  0
   -0.9040    3.2640   -7.5740 C   0  0
   -0.4590    4.5450   -7.3730 F   0  0
    0.0760    2.2720   -7.0100 C   0  0
   -1.0160    2.9940   -9.0740 C   0  0
    0.6130    1.4530   -7.7210 O   0  0
    0.3490    2.3090   -5.6720 N   0  0
    1.3050    1.3460   -5.1040 C   0  0  2  0  0  0
    0.8340    0.8480   -3.7360 C   0  0  2  0  0  0
    2.7170    1.9320   -5.0640 C   0  0
    1.7850   -0.0640   -3.2110 O   0  0
   -0.4810    0.1920   -3.8220 C   0  0
    1.6600   -0.4370   -1.9300 C   0  0
   -1.6510    0.9010   -3.4630 C   0  0
   -0.5720   -1.1500   -4.2660 C   0  0
    2.5660   -1.3790   -1.3750 C   0  0
    0.6190    0.1110   -1.1330 C   0  0
   -2.9120    0.2680   -3.5470 C   0  0
   -1.8340   -1.7850   -4.3500 C   0  0
    2.4240   -1.7640   -0.0160 C   0  0
    0.4800   -0.2770    0.2230 C   0  0
   -4.0330    0.9340   -3.1970 O   0  0
   -3.0080   -1.0800   -3.9900 C   0  0
    1.4020   -1.2170    0.7380 C   0  0
    3.2670   -2.6760    0.5940 C   0  0
   -5.3220    0.3590   -3.4690 C   0  0
   -4.3480   -1.7260   -4.0720 C   0  0
    1.5840   -1.8120    1.9430 N   0  0
    2.6700   -2.6520    1.8360 N   0  0
   -5.3130   -1.0510   -3.2710 O   0  0
    0.8400   -1.6250    3.0670 C   0  0
    1.4710   -1.4960    4.3180 C   0  0
   -0.5630   -1.5600    2.9770 C   0  0
    0.6990   -1.3050    5.4810 C   0  0
   -1.3320   -1.3670    4.1370 C   0  0
    1.3670   -1.1680    6.8090 C   0  0
   -0.7030   -1.2380    5.3870 C   0  0
    2.5700   -1.2210    6.9080 O   0  0
    0.5900   -0.9820    7.9180 N   0  0
    1.2340   -0.8460    9.2380 C   0  0  2  0  0  0
    0.2500   -0.8100   10.4030 C   0  0
    2.0190    0.4650    9.4280 C   0  0
    1.0020   -0.1820   11.4080 O   0  0
    1.6990    0.9100   10.8580 C   0  0
   -1.7130    3.6780   -9.5610 H   0  0
   -1.3650    1.9770   -9.2580 H   0  0
   -0.0470    3.1060   -9.5610 H   0  0
   -0.0960    2.9850   -5.0860 H   0  0
    1.4280    0.5120   -5.7950 H   0  0
    0.7690    1.7010   -3.0620 H   0  0
    3.0160    2.2830   -6.0510 H   0  0
    2.7690    2.7620   -4.3590 H   0  0
    3.4370    1.1780   -4.7460 H   0  0
   -1.5860    1.9240   -3.1230 H   0  0
    0.3180   -1.6950   -4.5430 H   0  0
    3.3550   -1.7890   -1.9880 H   0  0
   -0.0680    0.8280   -1.5590 H   0  0
   -1.8970   -2.8100   -4.6880 H   0  0
   -0.3070    0.1330    0.8400 H   0  0
    4.1250   -3.2460    0.2600 H   0  0
   -6.0630    0.8180   -2.8140 H   0  0
   -5.5940    0.5720   -4.5040 H   0  0
   -4.6900   -1.7150   -5.1090 H   0  0
   -4.3050   -2.7660   -3.7460 H   0  0
    2.5490   -1.5450    4.4010 H   0  0
   -1.0650   -1.6560    2.0250 H   0  0
   -2.4100   -1.3160    4.0680 H   0  0
   -1.3030   -1.0900    6.2740 H   0  0
   -0.4040   -0.9390    7.8260 H   0  0
    1.9080   -1.6820    9.3690 H   0  0
   -0.6170   -0.1990   10.1900 H   0  0
   -0.0740   -1.7870   10.7290 H   0  0
    3.0800    0.2950    9.2970 H   0  0
    1.7260    1.2360    8.7270 H   0  0
    1.0430    1.7700   10.8540 H   0  0
    2.5740    1.1370   11.4510 H   0  0
  1  2  1  0
  2  3  1  0
  2  4  1  0
  2  5  1  0
  4  6  2  0
  4  7  1  0
  7  8  1  0
  8  9  1  0
  8 10  1  0
  9 11  1  0
  9 12  1  0
 11 13  1  0
 12 14  2  0
 12 15  1  0
 13 16  2  0
 13 17  1  0
 14 18  1  0
 15 19  2  0
 16 20  1  0
 17 21  2  0
 18 22  1  0
 18 23  2  0
 20 24  2  0
 20 25  1  0
 22 26  1  0
 23 27  1  0
 24 28  1  0
 25 29  2  0
 26 30  1  0
 28 31  1  0
 31 32  2  0
 31 33  1  0
 32 34  1  0
 33 35  2  0
 34 36  1  0
 34 37  2  0
 36 38  2  0
 36 39  1  0
 40 39  1  0
 40 41  1  0
 40 42  1  0
 41 43  1  0
 42 44  1  0
 19 23  1  0
 21 24  1  0
 27 30  1  0
 28 29  1  0
 35 37  1  0
 43 44  1  0
  5 45  1  0
  5 46  1  0
  5 47  1  0
  7 48  1  0
  8 49  1  0
  9 50  1  0
 10 51  1  0
 10 52  1  0
 10 53  1  0
 14 54  1  0
 15 55  1  0
 16 56  1  0
 17 57  1  0
 19 58  1  0
 21 59  1  0
 25 60  1  0
 26 61  1  0
 26 62  1  0
 27 63  1  0
 27 64  1  0
 32 65  1  0
 33 66  1  0
 35 67  1  0
 37 68  1  0
 39 69  1  0
 40 70  1  0
 41 71  1  0
 41 72  1  0
 42 73  1  0
 42 74  1  0
 44 75  1  0
 44 76  1  0
M  END
> <Name>
CHEMBL3666810

> <IC50 nM>
0.63

> <Molecule_ChEMBL_ID>
CHEMBL3666810

> <Smiles>
C[C@H](NC(=O)C(C)(F)F)[C@H](Oc1ccc2c(cnn2-c2cccc(C(=O)N[C@H]3CCOC3)c2)c1)c1ccc2c(c1)OCOC2

$$$$
CHEMBL4105267
  SciTegic08162514323D

 51 54  0  0  0  0            999 V2000
    1.4900    0.9770    1.8770 S   0  0
    1.3360   -0.3200    2.5140 O   0  0
    2.6760    1.6930    2.3170 O   0  0
    1.6370    0.7210    0.2830 N   0  0
    0.1060    1.9360    2.2540 C   0  0
    0.5180    0.5880   -0.4940 C   0  0
    2.9710    0.6350   -0.3260 C   0  0
   -0.7460    1.5550    3.3050 C   0  0
   -0.1680    3.0960    1.5100 C   0  0
    0.4770    1.1640   -1.7770 C   0  0
   -0.5940   -0.1290   -0.0130 C   0  0
    3.8480   -0.3160    0.4060 C   0  0
   -1.8730    2.3360    3.6140 C   0  0
   -1.2970    3.8750    1.8170 C   0  0
   -0.6740    1.0250   -2.5740 C   0  0
   -1.7420   -0.2660   -0.8120 C   0  0
    3.3690   -1.5940    0.7500 C   0  0
    5.1560    0.0610    0.7560 C   0  0
   -2.1480    3.4960    2.8690 C   0  0
   -1.7850    0.3110   -2.0940 C   0  0
    4.1970   -2.4920    1.4440 C   0  0
    5.9850   -0.8400    1.4490 C   0  0
   -3.2170    4.2360    3.1600 F   0  0
   -2.8610    0.1820   -2.8440 O   0  0
    5.5060   -2.1150    1.7930 C   0  0
   -3.4780   -0.9840   -2.8440 C   0  0
   -4.8850   -1.0390   -2.8440 C   0  0
   -2.7340   -2.1780   -2.8440 C   0  0
   -5.5430   -2.2790   -2.8440 C   0  0
   -3.3930   -3.4200   -2.8440 C   0  0
   -4.7970   -3.4710   -2.8440 C   0  0
    3.4300    1.6230   -0.3280 H   0  0
    2.8710    0.3110   -1.3630 H   0  0
   -0.5350    0.6620    3.8790 H   0  0
    0.4860    3.3870    0.7010 H   0  0
    1.3200    1.7190   -2.1640 H   0  0
   -0.5820   -0.5800    0.9690 H   0  0
   -2.5250    2.0410    4.4220 H   0  0
   -1.5040    4.7660    1.2420 H   0  0
   -0.7010    1.4710   -3.5570 H   0  0
   -2.5940   -0.8160   -0.4390 H   0  0
    2.3630   -1.8890    0.4850 H   0  0
    5.5310    1.0390    0.4940 H   0  0
    3.8280   -3.4730    1.7070 H   0  0
    6.9900   -0.5510    1.7190 H   0  0
    6.1430   -2.8070    2.3260 H   0  0
   -5.4610   -0.1250   -2.8440 H   0  0
   -1.6560   -2.1430   -2.8440 H   0  0
   -6.6210   -2.3180   -2.8440 H   0  0
   -2.8180   -4.3340   -2.8440 H   0  0
   -5.3030   -4.4260   -2.8440 H   0  0
  1  2  2  0
  1  3  2  0
  1  4  1  0
  1  5  1  0
  4  6  1  0
  4  7  1  0
  5  8  2  0
  5  9  1  0
  6 10  2  0
  6 11  1  0
  7 12  1  0
  8 13  1  0
  9 14  2  0
 10 15  1  0
 11 16  2  0
 12 17  2  0
 12 18  1  0
 13 19  2  0
 15 20  2  0
 17 21  1  0
 18 22  2  0
 19 23  1  0
 20 24  1  0
 21 25  2  0
 24 26  1  0
 26 27  2  0
 26 28  1  0
 27 29  1  0
 28 30  2  0
 29 31  2  0
 14 19  1  0
 16 20  1  0
 22 25  1  0
 30 31  1  0
  7 32  1  0
  7 33  1  0
  8 34  1  0
  9 35  1  0
 10 36  1  0
 11 37  1  0
 13 38  1  0
 14 39  1  0
 15 40  1  0
 16 41  1  0
 17 42  1  0
 18 43  1  0
 21 44  1  0
 22 45  1  0
 25 46  1  0
 27 47  1  0
 28 48  1  0
 29 49  1  0
 30 50  1  0
 31 51  1  0
M  END
> <Name>
CHEMBL4105267

> <IC50 nM>
2040

> <Molecule_ChEMBL_ID>
CHEMBL4105267

> <Smiles>
O=S(=O)(c1ccc(F)cc1)N(Cc1ccccc1)c1ccc(Oc2ccccc2)cc1

$$$$
CHEMBL4075837
  SciTegic08162514323D

 53 56  0  0  0  0            999 V2000
    1.7290    0.5660    1.6050 S   0  0
    1.8300   -0.8340    1.9770 O   0  0
    2.8260    1.3730    2.1070 O   0  0
    1.7620    0.6460   -0.0120 N   0  0
    0.2560    1.1930    2.2540 C   0  0
    0.6020    0.5330   -0.7270 C   0  0
    3.0410    0.8380   -0.7110 C   0  0
   -0.3240    0.5920    3.3830 C   0  0
   -0.3570    2.3030    1.6480 C   0  0
    0.4570    1.2150   -1.9510 C   0  0
   -0.4550   -0.2620   -0.2420 C   0  0
    4.1410    0.0780   -0.0610 C   0  0
   -1.5230    1.1020    3.9100 C   0  0
   -1.5570    2.8130    2.1760 C   0  0
   -0.7360    1.0980   -2.6860 C   0  0
   -1.6460   -0.3750   -0.9790 C   0  0
    4.0490   -1.3200    0.0680 C   0  0
    5.2720    0.7540    0.4300 C   0  0
   -2.1420    2.2150    3.3090 C   0  0
   -1.7890    0.3030   -2.2010 C   0  0
    5.0900   -2.0390    0.6840 C   0  0
    6.3110    0.0350    1.0450 C   0  0
   -3.3100    2.7110    3.8220 N   0  0
   -2.9080    0.1950   -2.8910 O   0  0
    6.2190   -1.3610    1.1720 C   0  0
   -3.5250   -0.9690   -2.8910 C   0  0
   -4.9300   -1.0230   -2.8910 C   0  0
   -2.7810   -2.1620   -2.8910 C   0  0
   -5.5900   -2.2660   -2.8910 C   0  0
   -3.4390   -3.4040   -2.8910 C   0  0
   -4.8440   -3.4550   -2.8910 C   0  0
    3.2890    1.8980   -0.7190 H   0  0
    2.9380    0.5120   -1.7440 H   0  0
    0.1510   -0.2620    3.8460 H   0  0
    0.0900    2.7640    0.7810 H   0  0
    1.2560    1.8300   -2.3420 H   0  0
   -0.3630   -0.7930    0.6950 H   0  0
   -1.9570    0.6290    4.7810 H   0  0
   -2.0170    3.6680    1.6990 H   0  0
   -0.8420    1.6210   -3.6230 H   0  0
   -2.4530   -0.9860   -0.6020 H   0  0
    3.1840   -1.8480   -0.3050 H   0  0
    5.3480    1.8280    0.3340 H   0  0
    5.0200   -3.1130    0.7810 H   0  0
    7.1800    0.5570    1.4200 H   0  0
   -3.7500    3.5020    3.3930 H   0  0
   -3.7260    2.2850    4.6270 H   0  0
    7.0180   -1.9140    1.6450 H   0  0
   -5.5080   -0.1090   -2.8910 H   0  0
   -1.7010   -2.1270   -2.8910 H   0  0
   -6.6680   -2.3030   -2.8910 H   0  0
   -2.8650   -4.3180   -2.8910 H   0  0
   -5.3500   -4.4100   -2.8910 H   0  0
  1  2  2  0
  1  3  2  0
  1  4  1  0
  1  5  1  0
  4  6  1  0
  4  7  1  0
  5  8  2  0
  5  9  1  0
  6 10  2  0
  6 11  1  0
  7 12  1  0
  8 13  1  0
  9 14  2  0
 10 15  1  0
 11 16  2  0
 12 17  2  0
 12 18  1  0
 13 19  2  0
 15 20  2  0
 17 21  1  0
 18 22  2  0
 19 23  1  0
 20 24  1  0
 21 25  2  0
 24 26  1  0
 26 27  2  0
 26 28  1  0
 27 29  1  0
 28 30  2  0
 29 31  2  0
 14 19  1  0
 16 20  1  0
 22 25  1  0
 30 31  1  0
  7 32  1  0
  7 33  1  0
  8 34  1  0
  9 35  1  0
 10 36  1  0
 11 37  1  0
 13 38  1  0
 14 39  1  0
 15 40  1  0
 16 41  1  0
 17 42  1  0
 18 43  1  0
 21 44  1  0
 22 45  1  0
 23 46  1  0
 23 47  1  0
 25 48  1  0
 27 49  1  0
 28 50  1  0
 29 51  1  0
 30 52  1  0
 31 53  1  0
M  END
> <Name>
CHEMBL4075837

> <IC50 nM>
3150

> <Molecule_ChEMBL_ID>
CHEMBL4075837

> <Smiles>
Nc1ccc(S(=O)(=O)N(Cc2ccccc2)c2ccc(Oc3ccccc3)cc2)cc1

$$$$
CHEMBL228767
  SciTegic08162514323D

 49 51  0  0  1  0            999 V2000
    3.4180    1.5660   -1.5180 O   0  0
    3.7600    0.8120   -0.4900 C   0  0
    4.4320    1.9280   -2.4430 C   0  0
    2.8050    0.4140    0.4710 C   0  0
    5.0960    0.4000   -0.3510 C   0  0
    1.4140    0.8280    0.3500 C   0  0
    3.1930   -0.3910    1.5590 C   0  0
    5.4830   -0.4020    0.7340 C   0  0
    0.3810   -0.1410    0.2990 C   0  0
    1.0820    2.2030    0.2790 C   0  0
    4.5330   -0.7990    1.6900 C   0  0
   -0.9770    0.2600    0.1820 C   0  0
   -0.2680    2.6070    0.1600 C   0  0
   -1.3090    1.6430    0.1110 C   0  0
   -2.0610   -0.7640    0.1310 C   0  0
   -2.6000    2.0450   -0.0040 N   0  0
   -3.3460   -0.3690    0.0200 C   0  0
   -1.7540   -2.2400    0.2010 C   0  0  1  0  0  0
   -3.7480    1.0940   -0.0570 C   0  0
   -0.7970   -2.5680   -0.7790 O   0  0
   -1.2050   -2.6560    1.5670 C   0  0
   -4.5000    1.3100   -1.3710 C   0  0
   -4.6820    1.3930    1.1190 C   0  0
   -0.6370   -3.9570   -0.9570 C   0  0
    4.1270    2.5490   -3.2850 H   0  0
    4.8670    1.0120   -2.8480 H   0  0
    5.2150    2.4590   -1.9020 H   0  0
    5.8320    0.7010   -1.0820 H   0  0
    2.4750   -0.7050    2.3030 H   0  0
    6.5120   -0.7170    0.8360 H   0  0
    0.6330   -1.1900    0.3520 H   0  0
    1.8540    2.9570    0.3160 H   0  0
    4.8280   -1.4160    2.5260 H   0  0
   -0.4900    3.6640    0.1090 H   0  0
   -2.8160    3.0230   -0.0570 H   0  0
   -4.1230   -1.1210   -0.0160 H   0  0
   -2.6720   -2.7810   -0.0270 H   0  0
   -1.2950   -3.7310    1.7290 H   0  0
   -1.7420   -2.1520    2.3690 H   0  0
   -0.1500   -2.3950    1.6520 H   0  0
   -3.8710    1.1090   -2.2380 H   0  0
   -4.8520    2.3400   -1.4470 H   0  0
   -5.3690    0.6560   -1.4320 H   0  0
   -4.1860    1.2480    2.0780 H   0  0
   -5.5530    0.7380    1.0940 H   0  0
   -5.0350    2.4220    1.0780 H   0  0
   -0.0330   -4.1170   -1.8500 H   0  0
   -0.2500   -4.3750   -0.0270 H   0  0
   -1.6190   -4.3930   -1.1350 H   0  0
  1  2  1  0
  1  3  1  0
  2  4  2  0
  2  5  1  0
  4  6  1  0
  4  7  1  0
  5  8  2  0
  6  9  2  0
  6 10  1  0
  7 11  2  0
  9 12  1  0
 10 13  2  0
 12 14  2  0
 12 15  1  0
 14 16  1  0
 15 17  2  0
 15 18  1  0
 16 19  1  0
 18 20  1  0
 18 21  1  0
 19 22  1  0
 19 23  1  0
 20 24  1  0
  8 11  1  0
 13 14  1  0
 17 19  1  0
  3 25  1  0
  3 26  1  0
  3 27  1  0
  5 28  1  0
  7 29  1  0
  8 30  1  0
  9 31  1  0
 10 32  1  0
 11 33  1  0
 13 34  1  0
 16 35  1  0
 17 36  1  0
 18 37  1  0
 21 38  1  0
 21 39  1  0
 21 40  1  0
 22 41  1  0
 22 42  1  0
 22 43  1  0
 23 44  1  0
 23 45  1  0
 23 46  1  0
 24 47  1  0
 24 48  1  0
 24 49  1  0
M  END
> <Name>
CHEMBL228767

> <IC50 nM>
1060

> <Molecule_ChEMBL_ID>
CHEMBL228767

> <Smiles>
COc1ccccc1-c1ccc2c(c1)C(C(C)OC)=CC(C)(C)N2

$$$$
CHEMBL397018
  SciTegic08162514323D

 56 58  0  0  1  0            999 V2000
   -0.7090   -1.9780   -0.1460 O   0  0
   -1.5550   -1.6230    0.9240 C   0  0  2  0  0  0
   -1.3340   -1.8710   -1.4040 C   0  0
   -1.8610   -0.1460    0.8540 C   0  0
   -0.8630   -2.0140    2.2310 C   0  0
   -0.4220   -2.4300   -2.4650 C   0  0
   -0.7750    0.8770    0.9040 C   0  0
   -3.1460    0.2460    0.7440 C   0  0
   -0.9300   -2.6680   -3.6860 C   0  0
   -1.1090    2.2600    0.8340 C   0  0
    0.5800    0.4770    1.0230 C   0  0
   -3.5490    1.7090    0.6680 C   0  0
   -0.0180   -3.2260   -4.7460 C   0  0
   -2.4000    2.6620    0.7210 N   0  0
   -0.0680    3.2250    0.8850 C   0  0
    1.6130    1.4450    1.0720 C   0  0
   -4.3010    1.9280   -0.6480 C   0  0
   -4.4820    2.0080    1.8440 C   0  0
    1.2810    2.8190    1.0020 C   0  0
    3.0060    1.0290    1.1950 C   0  0
    3.5570    0.0920    0.2950 C   0  0
    3.8030    1.5720    2.2210 C   0  0
    2.8300   -0.4300   -0.6740 O   0  0
    4.9020   -0.2930    0.4320 C   0  0
    5.1450    1.1820    2.3500 C   0  0
    3.4920   -1.2280   -1.6470 C   0  0
    5.6950    0.2500    1.4570 C   0  0
   -2.4940   -2.1640    0.8090 H   0  0
   -1.5250   -0.8160   -1.6000 H   0  0
   -2.2600   -2.4450   -1.3750 H   0  0
   -1.4370   -2.7500    2.7910 H   0  0
   -0.7270   -1.1410    2.8710 H   0  0
    0.1210   -2.4370    2.0330 H   0  0
    0.6250   -2.6660   -2.3460 H   0  0
   -3.9240   -0.5040    0.7070 H   0  0
   -1.9530   -2.4920   -3.9790 H   0  0
    0.8320   -0.5740    1.0760 H   0  0
   -0.5510   -3.6580   -5.5940 H   0  0
    0.6150   -4.0040   -4.3180 H   0  0
    0.6330   -2.4390   -5.1270 H   0  0
   -2.6150    3.6410    0.6680 H   0  0
   -0.2910    4.2810    0.8320 H   0  0
   -3.6720    1.7270   -1.5160 H   0  0
   -4.6520    2.9570   -0.7250 H   0  0
   -5.1700    1.2740   -0.7070 H   0  0
   -3.9840    1.8650    2.8030 H   0  0
   -5.3540    1.3560    1.8180 H   0  0
   -4.8360    3.0390    1.8010 H   0  0
    2.0530    3.5740    1.0390 H   0  0
    3.3950    2.2930    2.9180 H   0  0
    5.3300   -1.0100   -0.2520 H   0  0
    5.7540    1.6000    3.1390 H   0  0
    2.7520   -1.5660   -2.3710 H   0  0
    4.3300   -0.6560   -2.0430 H   0  0
    3.8950   -2.1090   -1.1480 H   0  0
    6.7290   -0.0510    1.5570 H   0  0
  1  2  1  0
  1  3  1  0
  2  4  1  0
  2  5  1  0
  3  6  1  0
  4  7  1  0
  4  8  2  0
  6  9  2  0
  7 10  2  0
  7 11  1  0
  8 12  1  0
  9 13  1  0
 10 14  1  0
 10 15  1  0
 11 16  2  0
 12 17  1  0
 12 18  1  0
 15 19  2  0
 16 20  1  0
 20 21  2  0
 20 22  1  0
 21 23  1  0
 21 24  1  0
 22 25  2  0
 23 26  1  0
 24 27  2  0
 12 14  1  0
 16 19  1  0
 25 27  1  0
  2 28  1  0
  3 29  1  0
  3 30  1  0
  5 31  1  0
  5 32  1  0
  5 33  1  0
  6 34  1  0
  8 35  1  0
  9 36  1  0
 11 37  1  0
 13 38  1  0
 13 39  1  0
 13 40  1  0
 14 41  1  0
 15 42  1  0
 17 43  1  0
 17 44  1  0
 17 45  1  0
 18 46  1  0
 18 47  1  0
 18 48  1  0
 19 49  1  0
 22 50  1  0
 24 51  1  0
 25 52  1  0
 26 53  1  0
 26 54  1  0
 26 55  1  0
 27 56  1  0
M  END
> <Name>
CHEMBL397018

> <IC50 nM>
210

> <Molecule_ChEMBL_ID>
CHEMBL397018

> <Smiles>
C/C=C/COC(C)C1=CC(C)(C)Nc2ccc(-c3ccccc3OC)cc21

$$$$
CHEMBL1940555
  SciTegic08162514323D

 73 78  0  0  1  0            999 V2000
    3.4280    0.8770   -1.6250 S   0  0
    5.0590    0.4470   -1.5310 C   0  0
    2.8850    0.6720    0.0270 C   0  0
    5.6190   -0.0040   -0.3630 N   0  0
    5.8930    0.5330   -2.6170 N   0  0
    1.4490    1.1130    0.1410 C   0  0
    6.8970   -0.2170   -0.7480 C   0  0
    7.0610    0.1020   -2.0980 C   0  0
    5.5900    0.9770   -3.9860 C   0  0
    1.1700    2.2720    0.3520 O   0  0
    0.3690    0.0660   -0.0140 C   0  0  2  0  0  0
    7.9830   -0.6930    0.0210 C   0  0
    8.3200   -0.0430   -2.7290 C   0  0
    5.6540   -0.1930   -4.9690 C   0  0
    0.2720   -0.2280   -1.3970 O   0  0
   -1.0080    0.4650    0.5680 C   0  0  2  0  0  0
    0.6540   -1.2380    0.7560 C   0  0
    9.2500   -0.8440   -0.5980 C   0  0
    9.4180   -0.5190   -1.9690 C   0  0
   -1.7520   -0.8810    0.5720 C   0  0  1  0  0  0
   -1.8750    1.4490   -0.2380 C   0  0
   -0.7540    0.9650    2.0020 C   0  0
   -0.7050   -1.8300    1.1560 C   0  0
   -3.0920   -0.7990    1.3240 C   0  0  1  0  0  0
   -3.2830    1.6170    0.3810 C   0  0  1  0  0  0
   -4.0120    0.2640    0.6660 C   0  0  2  0  0  0
   -3.7730   -2.1800    1.3220 C   0  0
   -3.1800    2.4080    1.5490 O   0  0
   -5.3750    0.3750    1.4320 C   0  0  2  0  0  0
   -5.1270   -2.1460    2.0430 C   0  0
   -6.0160   -1.0100    1.5720 C   0  0
   -6.2970    1.3890    0.7620 C   0  0
   -5.1780    0.8590    2.8750 C   0  0
   -7.3220   -1.2300    1.3090 C   0  0
   -7.5960    1.1410    0.5100 C   0  0
   -8.1990   -0.1500    0.8380 C   0  0
   -9.3910   -0.3260    0.7230 O   0  0
    3.5100    1.2700    0.6910 H   0  0
    2.9730   -0.3750    0.3100 H   0  0
    4.5840    1.3950   -4.0200 H   0  0
    6.2870    1.7620   -4.2770 H   0  0
    7.8580   -0.9410    1.0660 H   0  0
    8.4490    0.2030   -3.7720 H   0  0
    4.9570   -0.9800   -4.6780 H   0  0
    5.4120    0.1370   -5.9790 H   0  0
    6.6540   -0.6250   -4.9900 H   0  0
    1.1060   -0.6460   -1.6600 H   0  0
    1.2210   -1.0370    1.6540 H   0  0
    1.2440   -1.9390    0.1840 H   0  0
   10.0900   -1.2050   -0.0230 H   0  0
   10.3850   -0.6370   -2.4360 H   0  0
   -1.9510   -1.1870   -0.4450 H   0  0
   -1.9980    1.0740   -1.2560 H   0  0
   -1.3710    2.4140   -0.3320 H   0  0
   -0.0020    0.3650    2.5140 H   0  0
   -1.6700    0.9260    2.5920 H   0  0
   -0.4080    1.9980    1.9920 H   0  0
   -0.8320   -2.8360    0.7890 H   0  0
   -0.7930   -1.8710    2.2340 H   0  0
   -2.9020   -0.5100    2.3590 H   0  0
   -3.8750    2.2030   -0.3220 H   0  0
   -4.2500   -0.1270   -0.3280 H   0  0
   -3.9180   -2.5210    0.2950 H   0  0
   -3.1370   -2.9200    1.8070 H   0  0
   -2.8540    3.2810    1.2770 H   0  0
   -5.6310   -3.1070    1.9160 H   0  0
   -4.9610   -2.0290    3.1150 H   0  0
   -5.9040    2.3560    0.4750 H   0  0
   -6.0410    0.6310    3.5020 H   0  0
   -5.0230    1.9380    2.9020 H   0  0
   -4.3070    0.3870    3.3260 H   0  0
   -7.7380   -2.2190    1.4430 H   0  0
   -8.1990    1.9140    0.0570 H   0  0
  1  2  1  0
  1  3  1  0
  2  4  2  0
  2  5  1  0
  3  6  1  0
  4  7  1  0
  5  8  1  0
  5  9  1  0
  6 10  2  0
  6 11  1  0
  7 12  1  0
  8 13  1  0
  9 14  1  0
 11 15  1  0
 11 16  1  0
 11 17  1  0
 12 18  2  0
 13 19  2  0
 16 20  1  0
 16 21  1  0
 16 22  1  0
 17 23  1  0
 20 24  1  0
 21 25  1  0
 26 24  1  0
 24 27  1  0
 25 28  1  0
 26 29  1  0
 27 30  1  0
 29 31  1  0
 29 32  1  0
 29 33  1  0
 31 34  2  0
 32 35  2  0
 34 36  1  0
 36 37  2  0
  7  8  2  0
 18 19  1  0
 20 23  1  0
 25 26  1  0
 30 31  1  0
 35 36  1  0
  3 38  1  0
  3 39  1  0
  9 40  1  0
  9 41  1  0
 12 42  1  0
 13 43  1  0
 14 44  1  0
 14 45  1  0
 14 46  1  0
 15 47  1  0
 17 48  1  0
 17 49  1  0
 18 50  1  0
 19 51  1  0
 20 52  1  0
 21 53  1  0
 21 54  1  0
 22 55  1  0
 22 56  1  0
 22 57  1  0
 23 58  1  0
 23 59  1  0
 24 60  1  0
 25 61  1  0
 26 62  1  0
 27 63  1  0
 27 64  1  0
 28 65  1  0
 30 66  1  0
 30 67  1  0
 32 68  1  0
 33 69  1  0
 33 70  1  0
 33 71  1  0
 34 72  1  0
 35 73  1  0
M  END
> <Name>
CHEMBL1940555

> <IC50 nM>
41.3

> <Molecule_ChEMBL_ID>
CHEMBL1940555

> <Smiles>
CCn1c(SCC(=O)[C@@]2(O)CC[C@H]3[C@@H]4CCC5=CC(=O)C=C[C@]5(C)[C@H]4[C@@H](O)C[C@@]32C)nc2ccccc21

$$$$
CHEMBL1940556
  SciTegic08162514323D

 70 75  0  0  1  0            999 V2000
    4.9030    1.4550   -4.5570 S   0  0
    4.4120    0.3810   -3.3280 C   0  0
    3.5530    1.1310   -5.5140 C   0  0
    4.9320   -0.1820   -1.8240 S   0  0
    3.2230   -0.2230   -3.6460 N   0  0
    2.7460    0.1930   -4.8610 C   0  0
    3.4470   -0.2340   -0.9000 C   0  0
    1.5100   -0.1990   -5.5800 C   0  0
    3.7700   -0.2670    0.5680 C   0  0
    1.0800   -1.5390   -5.5590 C   0  0
    0.7660    0.7660   -6.2810 C   0  0
    4.8480    0.0980    0.9770 O   0  0
    2.7070   -0.7690    1.5180 C   0  0  2  0  0  0
   -0.0920   -1.9120   -6.2400 C   0  0
   -0.4060    0.3930   -6.9610 C   0  0
    2.5700   -2.1620    1.2830 O   0  0
    1.3400   -0.0550    1.3970 C   0  0  2  0  0  0
    3.0590   -0.5570    3.0040 C   0  0
   -0.8340   -0.9450   -6.9410 C   0  0
    0.6510   -0.5000    2.6930 C   0  0  1  0  0  0
    0.4280   -0.4490    0.2210 C   0  0
    1.6100    1.4610    1.4160 C   0  0
    1.7420   -0.2790    3.7400 C   0  0
   -0.6930    0.2150    2.9200 C   0  0  1  0  0  0
   -0.9960    0.1430    0.3500 C   0  0  1  0  0  0
   -1.6460   -0.1290    1.7420 C   0  0  2  0  0  0
   -1.2750   -0.2520    4.2680 C   0  0
   -0.9530    1.5270    0.0660 O   0  0
   -3.0720    0.4750    1.9570 C   0  0  2  0  0  0
   -2.6820    0.3050    4.5120 C   0  0
   -3.5820    0.0250    3.3260 C   0  0
   -4.0100    0.0800    0.8180 C   0  0
   -3.0430    2.0080    1.9880 C   0  0
   -4.7680   -0.5960    3.4980 C   0  0
   -5.1840   -0.5490    1.0140 C   0  0
   -5.6410   -0.9040    2.3610 C   0  0
   -6.7110   -1.4390    2.5290 O   0  0
    3.3710    1.5920   -6.4770 H   0  0
    2.8460    0.6470   -1.1290 H   0  0
    2.8790   -1.1230   -1.1760 H   0  0
    1.6470   -2.2850   -5.0230 H   0  0
    1.0900    1.7970   -6.3010 H   0  0
   -0.4200   -2.9390   -6.2250 H   0  0
   -0.9760    1.1350   -7.5000 H   0  0
    2.2620   -2.2690    0.3690 H   0  0
    3.5840   -1.3980    3.4360 H   0  0
    3.7110    0.2970    3.1270 H   0  0
   -1.7360   -1.2320   -7.4650 H   0  0
    0.4510   -1.5620    2.6450 H   0  0
    0.8850   -0.1600   -0.7270 H   0  0
    0.3300   -1.5330    0.1800 H   0  0
    0.7010    2.0100    1.6660 H   0  0
    2.3850    1.7050    2.1410 H   0  0
    1.9470    1.8030    0.4380 H   0  0
    1.6110   -0.9300    4.5940 H   0  0
    1.7230    0.7380    4.1040 H   0  0
   -0.5370    1.2930    2.9610 H   0  0
   -1.6090   -0.3030   -0.4320 H   0  0
   -1.7770   -1.2130    1.7740 H   0  0
   -0.6230    0.0470    5.0880 H   0  0
   -1.3180   -1.3420    4.2910 H   0  0
   -0.7050    1.6190   -0.8670 H   0  0
   -2.6310    1.3810    4.6740 H   0  0
   -3.0940   -0.1270    5.4240 H   0  0
   -3.7300    0.3150   -0.1970 H   0  0
   -3.9450    2.4220    2.4380 H   0  0
   -2.9550    2.4120    0.9790 H   0  0
   -2.1890    2.3650    2.5650 H   0  0
   -5.0880   -0.8810    4.4900 H   0  0
   -5.8010   -0.7950    0.1620 H   0  0
  1  2  1  0
  1  3  1  0
  2  4  1  0
  2  5  2  0
  3  6  2  0
  4  7  1  0
  6  8  1  0
  7  9  1  0
  8 10  2  0
  8 11  1  0
  9 12  2  0
  9 13  1  0
 10 14  1  0
 11 15  2  0
 13 16  1  0
 13 17  1  0
 13 18  1  0
 14 19  2  0
 17 20  1  0
 17 21  1  0
 17 22  1  0
 18 23  1  0
 20 24  1  0
 21 25  1  0
 26 24  1  0
 24 27  1  0
 25 28  1  0
 26 29  1  0
 27 30  1  0
 29 31  1  0
 29 32  1  0
 29 33  1  0
 31 34  2  0
 32 35  2  0
 34 36  1  0
 36 37  2  0
  5  6  1  0
 15 19  1  0
 20 23  1  0
 25 26  1  0
 30 31  1  0
 35 36  1  0
  3 38  1  0
  7 39  1  0
  7 40  1  0
 10 41  1  0
 11 42  1  0
 14 43  1  0
 15 44  1  0
 16 45  1  0
 18 46  1  0
 18 47  1  0
 19 48  1  0
 20 49  1  0
 21 50  1  0
 21 51  1  0
 22 52  1  0
 22 53  1  0
 22 54  1  0
 23 55  1  0
 23 56  1  0
 24 57  1  0
 25 58  1  0
 26 59  1  0
 27 60  1  0
 27 61  1  0
 28 62  1  0
 30 63  1  0
 30 64  1  0
 32 65  1  0
 33 66  1  0
 33 67  1  0
 33 68  1  0
 34 69  1  0
 35 70  1  0
M  END
> <Name>
CHEMBL1940556

> <IC50 nM>
305

> <Molecule_ChEMBL_ID>
CHEMBL1940556

> <Smiles>
C[C@]12C=CC(=O)C=C1CC[C@@H]1[C@@H]2[C@@H](O)C[C@@]2(C)[C@H]1CC[C@]2(O)C(=O)CSc1nc(-c2ccccc2)cs1

$$$$
CHEMBL1940695
  SciTegic08162514323D

 68 73  0  0  1  0            999 V2000
    4.7930    2.2750    1.0180 S   0  0
    4.2130    2.6500   -0.5840 C   0  0
    4.6890    3.8980    1.3380 C   0  0
    3.8460    1.8300   -2.0120 S   0  0
    3.9690    4.0200   -0.7950 N   0  0
    5.0610    4.2660    2.6070 N   0  0
    4.2520    4.7270    0.3380 C   0  0
    4.1580    0.1620   -1.5840 C   0  0
    4.9790    5.6230    2.8910 C   0  0
    4.1660    6.1150    0.6150 C   0  0
    3.1050   -0.3140   -0.6190 C   0  0
    4.5350    6.5680    1.9160 C   0  0
    3.3120   -0.3200    0.5720 O   0  0
    1.7850   -0.7830   -1.1800 C   0  0  2  0  0  0
    1.4670    0.0840   -2.2580 O   0  0
    0.6290   -0.8200   -0.1520 C   0  0  2  0  0  0
    1.8120   -2.2520   -1.6700 C   0  0  1  0  0  0
   -0.4280   -1.6270   -0.9360 C   0  0  1  0  0  0
    0.0160    0.5250    0.2910 C   0  0
    1.1270   -1.6070    1.0720 C   0  0
    0.3850   -2.7970   -1.4860 C   0  0
    2.3260   -2.4690   -3.0960 C   0  0
   -1.6470   -1.9410   -0.0510 C   0  0  1  0  0  0
   -1.3240    0.3570    1.0510 C   0  0  1  0  0  0
   -2.3030   -0.5700    0.2830 C   0  0  2  0  0  0
   -2.6410   -2.9570   -0.6640 C   0  0
   -1.0880   -0.1390    2.3550 O   0  0
   -3.7290   -0.7640    0.8750 C   0  0  2  0  0  0
   -3.9280   -2.3280   -1.2150 C   0  0
   -4.5800   -1.3480   -0.2580 C   0  0
   -4.3360    0.5120    1.4490 C   0  0
   -3.7170   -1.7680    2.0350 C   0  0
   -5.8710   -0.9980   -0.4380 C   0  0
   -5.6170    0.8670    1.2320 C   0  0
   -6.4880    0.0610    0.3690 C   0  0
   -7.6760    0.2730    0.3100 O   0  0
    4.1390   -0.4530   -2.4840 H   0  0
    5.1450    0.0820   -1.1270 H   0  0
    5.2580    5.9730    3.8730 H   0  0
    3.8280    6.8150   -0.1350 H   0  0
    4.4820    7.6190    2.1640 H   0  0
    2.1390   -0.0530   -2.9430 H   0  0
    2.4550   -2.8240   -1.0160 H   0  0
   -0.7770   -1.0530   -1.7830 H   0  0
   -0.1840    1.1410   -0.5880 H   0  0
    0.7320    1.0920    0.8870 H   0  0
    0.3070   -2.0740    1.6170 H   0  0
    1.6540   -0.9510    1.7640 H   0  0
    1.8160   -2.3950    0.7680 H   0  0
    0.3870   -3.6190   -0.7850 H   0  0
   -0.0450   -3.1660   -2.4080 H   0  0
    2.3110   -3.5270   -3.3560 H   0  0
    1.7170   -1.9160   -3.8130 H   0  0
    3.3540   -2.1170   -3.1920 H   0  0
   -1.2910   -2.4000    0.8710 H   0  0
   -1.7600    1.3480    1.1720 H   0  0
   -2.4550   -0.0470   -0.6660 H   0  0
   -2.9280   -3.6680    0.1110 H   0  0
   -2.1640   -3.5610   -1.4380 H   0  0
   -1.7150    0.3050    2.9470 H   0  0
   -3.6950   -1.8010   -2.1410 H   0  0
   -4.6330   -3.1190   -1.4790 H   0  0
   -3.7330    1.1660    2.0610 H   0  0
   -4.7230   -2.0740    2.3180 H   0  0
   -3.2400   -1.3340    2.9140 H   0  0
   -3.1600   -2.6640    1.7620 H   0  0
   -6.4610   -1.4900   -1.1970 H   0  0
   -6.0100    1.7580    1.7010 H   0  0
  1  2  1  0
  1  3  1  0
  2  4  1  0
  2  5  2  0
  3  6  2  0
  3  7  1  0
  4  8  1  0
  6  9  1  0
  7 10  2  0
  8 11  1  0
  9 12  2  0
 11 13  2  0
 11 14  1  0
 14 15  1  0
 14 16  1  0
 14 17  1  0
 16 18  1  0
 16 19  1  0
 16 20  1  0
 17 21  1  0
 17 22  1  0
 18 23  1  0
 19 24  1  0
 25 23  1  0
 23 26  1  0
 24 27  1  0
 25 28  1  0
 26 29  1  0
 28 30  1  0
 28 31  1  0
 28 32  1  0
 30 33  2  0
 31 34  2  0
 33 35  1  0
 35 36  2  0
  5  7  1  0
 10 12  1  0
 18 21  1  0
 24 25  1  0
 29 30  1  0
 34 35  1  0
  8 37  1  0
  8 38  1  0
  9 39  1  0
 10 40  1  0
 12 41  1  0
 15 42  1  0
 17 43  1  0
 18 44  1  0
 19 45  1  0
 19 46  1  0
 20 47  1  0
 20 48  1  0
 20 49  1  0
 21 50  1  0
 21 51  1  0
 22 52  1  0
 22 53  1  0
 22 54  1  0
 23 55  1  0
 24 56  1  0
 25 57  1  0
 26 58  1  0
 26 59  1  0
 27 60  1  0
 29 61  1  0
 29 62  1  0
 31 63  1  0
 32 64  1  0
 32 65  1  0
 32 66  1  0
 33 67  1  0
 34 68  1  0
M  END
> <Name>
CHEMBL1940695

> <IC50 nM>
7

> <Molecule_ChEMBL_ID>
CHEMBL1940695

> <Smiles>
C[C@@H]1C[C@H]2[C@@H]3CCC4=CC(=O)C=C[C@]4(C)[C@H]3[C@@H](O)C[C@]2(C)[C@@]1(O)C(=O)CSc1nc2cccnc2s1

$$$$
CHEMBL71450
  SciTegic08162514323D

 59 61  0  0  0  0            999 V2000
   -5.4260    0.5630    1.3790 S   0  0
   -5.5940    0.8730   -0.0310 O   0  0
   -6.0080   -0.7150    1.7560 O   0  0
   -3.8360    0.4810    1.6740 N   0  0
   -6.1910    1.8540    2.3500 C   0  0
   -3.0470   -0.3810    0.9530 C   0  0
   -1.6390   -0.3790    1.0920 C   0  0
   -3.6620   -1.2770    0.0610 C   0  0
   -0.8590   -1.2810    0.3300 C   0  0
   -0.9760    0.5720    2.0390 C   0  0
   -2.8850   -2.1700   -0.6930 C   0  0
    0.5100   -1.3090    0.4380 N   0  0
   -1.4880   -2.1740   -0.5610 C   0  0
    1.3650   -1.0980   -0.7380 C   0  0
    1.1390   -1.5530    1.7420 C   0  0
    1.2700    0.2990   -1.2400 C   0  0
    1.9280   -2.8120    1.7420 C   0  0
    2.1760    1.2740   -0.7890 C   0  0
    0.2740    0.6470   -2.1700 C   0  0
    1.2720   -4.0550    1.7420 C   0  0
    3.3340   -2.7620    1.7420 C   0  0
    2.0840    2.5920   -1.2640 C   0  0
    0.1840    1.9650   -2.6450 C   0  0
    2.0180   -5.2460    1.7420 C   0  0
    4.0800   -3.9530    1.7420 C   0  0
    1.0880    2.9430   -2.1930 C   0  0
    3.4220   -5.1950    1.7420 C   0  0
    1.0040    4.1800   -2.6390 O   0  0
    2.1580    5.0020   -2.5490 C   0  0
    3.3030    4.3380   -3.2680 C   0  0
    3.1470    4.0140   -4.5610 C   0  0
   -3.4300    1.0570    2.3830 H   0  0
   -7.2680    1.9530    2.1950 H   0  0
   -5.7320    2.8130    2.1070 H   0  0
   -6.0230    1.6620    3.4080 H   0  0
   -4.7360   -1.2950   -0.0610 H   0  0
   -1.4730    1.5430    1.9860 H   0  0
   -0.9840    0.1500    3.0430 H   0  0
    0.0630    0.7150    1.7440 H   0  0
   -3.3610   -2.8570   -1.3770 H   0  0
   -0.9080   -2.8690   -1.1500 H   0  0
    1.0680   -1.7870   -1.5270 H   0  0
    2.3990   -1.3180   -0.4750 H   0  0
    0.3650   -1.6070    2.5100 H   0  0
    1.7910   -0.7150    1.9880 H   0  0
    2.9450    1.0140   -0.0740 H   0  0
   -0.4260   -0.1000   -2.5210 H   0  0
    0.1920   -4.1020    1.7420 H   0  0
    3.8460   -1.8110    1.7420 H   0  0
    2.7830    3.3380   -0.9140 H   0  0
   -0.5840    2.2270   -3.3570 H   0  0
    1.5120   -6.1990    1.7420 H   0  0
    5.1600   -3.9140    1.7420 H   0  0
    3.9960   -6.1090    1.7420 H   0  0
    2.4060    5.1290   -1.4960 H   0  0
    1.9340    5.9590   -3.0180 H   0  0
    4.2640    4.0880   -2.8420 H   0  0
    3.8690    3.5330   -5.2030 H   0  0
    2.1880    4.2660   -4.9880 H   0  0
  1  2  2  0
  1  3  2  0
  1  4  1  0
  1  5  1  0
  4  6  1  0
  6  7  2  0
  6  8  1  0
  7  9  1  0
  7 10  1  0
  8 11  2  0
  9 12  1  0
  9 13  2  0
 12 14  1  0
 12 15  1  0
 14 16  1  0
 15 17  1  0
 16 18  2  0
 16 19  1  0
 17 20  2  0
 17 21  1  0
 18 22  1  0
 19 23  2  0
 20 24  1  0
 21 25  2  0
 22 26  2  0
 24 27  2  0
 26 28  1  0
 28 29  1  0
 29 30  1  0
 30 31  2  0
 11 13  1  0
 23 26  1  0
 25 27  1  0
  4 32  1  0
  5 33  1  0
  5 34  1  0
  5 35  1  0
  8 36  1  0
 10 37  1  0
 10 38  1  0
 10 39  1  0
 11 40  1  0
 13 41  1  0
 14 42  1  0
 14 43  1  0
 15 44  1  0
 15 45  1  0
 18 46  1  0
 19 47  1  0
 20 48  1  0
 21 49  1  0
 22 50  1  0
 23 51  1  0
 24 52  1  0
 25 53  1  0
 27 54  1  0
 29 55  1  0
 29 56  1  0
 30 57  1  0
 31 58  1  0
 31 59  1  0
M  END
> <Name>
CHEMBL71450

> <IC50 nM>
13

> <Molecule_ChEMBL_ID>
CHEMBL71450

> <Smiles>
C=CCOc1ccc(CN(Cc2ccccc2)c2cccc(NS(C)(=O)=O)c2C)cc1

$$$$
CHEMBL302442
  SciTegic08162514323D

 55 58  0  0  1  0            999 V2000
   -1.9120    5.2420   -1.0290 S   0  0
   -1.5820    5.4080    0.3750 O   0  0
   -0.9550    5.8710   -1.9220 O   0  0
   -1.9030    3.6520   -1.3480 N   0  0
   -3.5310    5.9430   -1.3280 C   0  0
   -0.7760    2.9450   -1.1840 C   0  0
   -0.7540    1.5570   -1.4590 C   0  0
    0.4100    3.5740   -0.7360 C   0  0
    0.4330    0.8010   -1.2810 C   0  0
    1.6010    2.8320   -0.5680 C   0  0
    1.6290    1.4340   -0.8300 C   0  0
    0.4280   -0.6620   -1.5650 C   0  0  1  0  0  0
    2.8500    0.5980   -0.6720 C   0  0
    1.7300   -1.1680   -1.8890 O   0  0
   -0.1150   -1.4010   -0.3950 C   0  0
    2.8360   -0.6970   -1.2740 C   0  0
    4.0250    1.0120    0.0330 C   0  0
   -1.2050   -2.2760   -0.5590 C   0  0
    0.4630   -1.2290    0.8750 C   0  0
    3.9880   -1.5180   -1.2460 C   0  0
    4.1050    2.1760    0.6910 O   0  0
    5.1660    0.1740    0.0620 C   0  0
   -1.7190   -2.9750    0.5490 C   0  0
   -0.0510   -1.9280    1.9820 C   0  0
    5.1520   -1.0820   -0.5800 C   0  0
    5.3260    2.4900    1.3440 C   0  0
   -2.8770   -3.9030    0.3770 C   0  0
   -1.1410   -2.8010    1.8180 C   0  0
   -3.3870   -4.0650   -0.7070 O   0  0
   -3.2830   -4.5140    1.4860 O   0  0
   -4.3850   -5.3790    1.2540 C   0  0
   -4.7950   -6.0450    2.5680 C   0  0
   -2.7350    3.2010   -1.6640 H   0  0
   -3.6000    7.0120   -1.1310 H   0  0
   -4.2660    5.4390   -0.7010 H   0  0
   -3.8110    5.7770   -2.3690 H   0  0
   -1.6510    1.0570   -1.8050 H   0  0
    0.4200    4.6330   -0.5180 H   0  0
    2.4670    3.3850   -0.2420 H   0  0
   -0.2170   -0.8750   -2.4180 H   0  0
   -1.6490   -2.4060   -1.5350 H   0  0
    1.2990   -0.5590    1.0080 H   0  0
    3.9750   -2.4810   -1.7330 H   0  0
    6.0570    0.4960    0.5840 H   0  0
    0.3940   -1.7950    2.9570 H   0  0
    6.0310   -1.7090   -0.5610 H   0  0
    5.3690    3.4470    1.8650 H   0  0
    6.1230    2.4800    0.6010 H   0  0
    5.5370    1.7050    2.0700 H   0  0
   -1.5280   -3.3340    2.6760 H   0  0
   -5.2050   -4.7870    0.8500 H   0  0
   -4.0820   -6.1270    0.5210 H   0  0
   -5.6430   -6.7150    2.4120 H   0  0
   -3.9650   -6.6130    2.9880 H   0  0
   -5.0920   -5.2970    3.3030 H   0  0
  1  2  2  0
  1  3  2  0
  1  4  1  0
  1  5  1  0
  4  6  1  0
  6  7  2  0
  6  8  1  0
  7  9  1  0
  8 10  2  0
  9 11  2  0
  9 12  1  0
 11 13  1  0
 12 14  1  0
 12 15  1  0
 13 16  2  0
 13 17  1  0
 15 18  2  0
 15 19  1  0
 16 20  1  0
 17 21  1  0
 17 22  2  0
 18 23  1  0
 19 24  2  0
 20 25  2  0
 21 26  1  0
 23 27  1  0
 23 28  2  0
 27 29  2  0
 27 30  1  0
 30 31  1  0
 31 32  1  0
 10 11  1  0
 14 16  1  0
 22 25  1  0
 24 28  1  0
  4 33  1  0
  5 34  1  0
  5 35  1  0
  5 36  1  0
  7 37  1  0
  8 38  1  0
 10 39  1  0
 12 40  1  0
 18 41  1  0
 19 42  1  0
 20 43  1  0
 22 44  1  0
 24 45  1  0
 25 46  1  0
 26 47  1  0
 26 48  1  0
 26 49  1  0
 28 50  1  0
 31 51  1  0
 31 52  1  0
 32 53  1  0
 32 54  1  0
 32 55  1  0
M  END
> <Name>
CHEMBL302442

> <IC50 nM>
31

> <Molecule_ChEMBL_ID>
CHEMBL302442

> <Smiles>
CCOC(=O)c1cccc(C2Oc3cccc(OC)c3-c3ccc(NS(C)(=O)=O)cc32)c1

$$$$
CHEMBL426262
  SciTegic08162514323D

 45 48  0  0  1  0            999 V2000
    3.6740   -2.6820    1.8480 S   0  0
    3.0760   -2.9800    0.2750 C   0  0
    2.1860   -1.7930    2.0310 C   0  0
    1.8420   -2.4430   -0.0700 C   0  0
    3.7890   -3.7480   -0.6780 C   0  0
    1.2680   -1.7170    0.9610 C   0  0
    1.2680   -2.6390   -1.3500 C   0  0
    3.2380   -3.9610   -1.9670 C   0  0
   -0.0620   -0.9900    0.9570 C   0  0  3  0  0  0
    1.9790   -3.4060   -2.3030 C   0  0
   -0.5350   -0.8670    2.2790 O   0  0
    0.0760    0.4180    0.3630 C   0  0  3  0  0  0
   -1.2680    0.9850   -0.1880 C   0  0  3  0  0  0
    0.7380    1.3870    1.3590 C   0  0
   -1.1700    2.4940   -0.3630 C   0  0
   -2.4570    0.6800    0.7540 C   0  0
   -1.5390    0.3630   -1.5650 C   0  0
    1.0980    2.7370    0.7070 C   0  0
   -2.2690    3.2780   -0.3690 C   0  0
    0.2150    3.0840   -0.5080 C   0  0
   -3.7730    1.2850    0.2360 C   0  0
   -3.6250    2.7400   -0.1390 C   0  0
   -4.5920    3.4570   -0.2440 O   0  0
    1.9730   -1.3030    2.9730 H   0  0
    4.7480   -4.1740   -0.4240 H   0  0
    0.3050   -2.2150   -1.6040 H   0  0
    3.7810   -4.5450   -2.6950 H   0  0
   -0.7910   -1.5680    0.3890 H   0  0
    1.5610   -3.5680   -3.2850 H   0  0
   -0.7150   -1.7640    2.6040 H   0  0
    0.7740    0.3260   -0.4730 H   0  0
    0.0570    1.5590    2.1910 H   0  0
    1.6350    0.9420    1.7930 H   0  0
   -2.5900   -0.3960    0.8770 H   0  0
   -2.2480    1.0720    1.7500 H   0  0
   -2.4140    0.8200   -2.0290 H   0  0
   -0.6800    0.4940   -2.2230 H   0  0
   -1.7300   -0.7050   -1.4750 H   0  0
    1.0240    3.5240    1.4570 H   0  0
    2.1410    2.7270    0.3890 H   0  0
   -2.1620    4.3400   -0.5370 H   0  0
    0.6660    2.6760   -1.4120 H   0  0
    0.1760    4.1660   -0.6470 H   0  0
   -4.5530    1.1780    0.9920 H   0  0
   -4.1130    0.7310   -0.6390 H   0  0
  1  2  1  0
  1  3  1  0
  2  4  1  0
  2  5  2  0
  3  6  2  0
  4  7  2  0
  5  8  1  0
  6  9  1  0
  7 10  1  0
  9 11  1  0
  9 12  1  0
 12 13  1  0
 12 14  1  0
 13 15  1  0
 13 16  1  0
 13 17  1  0
 14 18  1  0
 15 19  2  0
 15 20  1  0
 16 21  1  0
 19 22  1  0
 22 23  2  0
  4  6  1  0
  8 10  2  0
 18 20  1  0
 21 22  1  0
  3 24  1  0
  5 25  1  0
  7 26  1  0
  8 27  1  0
  9 28  1  0
 10 29  1  0
 11 30  1  0
 12 31  1  0
 14 32  1  0
 14 33  1  0
 16 34  1  0
 16 35  1  0
 17 36  1  0
 17 37  1  0
 17 38  1  0
 18 39  1  0
 18 40  1  0
 19 41  1  0
 20 42  1  0
 20 43  1  0
 21 44  1  0
 21 45  1  0
M  END
> <Name>
CHEMBL426262

> <IC50 nM>
165

> <Molecule_ChEMBL_ID>
CHEMBL426262

> <Smiles>
CC12CCC(=O)C=C1CCCC2C(O)c1csc2ccccc12

$$$$
CHEMBL3233269
  SciTegic08162514323D

 51 53  0  0  1  0            999 V2000
   -5.0080    3.6830    1.0080 F   0  0
   -4.6290    2.4370    0.7380 C   0  0
   -3.3650    1.9800    1.1500 C   0  0
   -5.4940    1.5740    0.0430 C   0  0
   -2.9650    0.6620    0.8650 C   0  0
   -5.0940    0.2580   -0.2420 C   0  0
   -3.8300   -0.2030    0.1680 C   0  0
   -1.6250    0.1890    1.3070 C   0  0
   -3.4670   -1.4400   -0.1050 O   0  0
   -0.9940    0.3300   -0.0800 C   0  0
   -1.6700   -1.2620    1.7890 C   0  0
   -1.0060    1.1350    2.3340 C   0  0
   -4.3910   -2.2720   -0.7910 C   0  0
    0.5270    0.1800   -0.0550 C   0  0  2  0  0  0
    1.0660    1.2750    0.6480 O   0  0
    1.1410    0.1600   -1.4550 C   0  0
    0.9880   -0.9940    0.8090 C   0  0
    2.6480    0.0490   -1.3890 C   0  0
    3.5100    1.1740   -1.3140 N   0  0
    3.4400   -1.1190   -1.3930 C   0  0
    4.8030    0.6800   -1.2700 C   0  0
    4.7170   -0.6900   -1.3180 C   0  0
    6.0780    1.2730   -1.1870 C   0  0
    5.8910   -1.4960   -1.2910 C   0  0
    7.2520    0.5530   -1.1560 N   0  0
    7.1520   -0.8340   -1.2090 C   0  0
   -2.7010    2.6440    1.6860 H   0  0
   -6.4670    1.9220   -0.2750 H   0  0
   -5.7620   -0.4010   -0.7770 H   0  0
   -1.2810    1.2770   -0.5390 H   0  0
   -1.4390   -0.3770   -0.7790 H   0  0
   -2.6370   -1.5140    2.2250 H   0  0
   -0.9060   -1.4400    2.5450 H   0  0
   -1.4880   -1.9470    0.9630 H   0  0
   -1.6740    1.3140    3.1760 H   0  0
   -0.7730    2.0980    1.8810 H   0  0
   -0.0780    0.7210    2.7290 H   0  0
   -5.2700   -2.3990   -0.1600 H   0  0
   -4.5630   -1.8460   -1.7790 H   0  0
   -3.9320   -3.2520   -0.9280 H   0  0
    2.0040    1.0820    0.8030 H   0  0
    0.8670    1.0580   -2.0080 H   0  0
    0.7400   -0.6660   -2.0390 H   0  0
    0.7970   -0.8200    1.8670 H   0  0
    2.0590   -1.1620    0.6880 H   0  0
    0.4730   -1.9100    0.5230 H   0  0
    3.2380    2.1290   -1.2970 H   0  0
    3.0880   -2.1430   -1.4410 H   0  0
    6.1410    2.3510   -1.1480 H   0  0
    5.8340   -2.5740   -1.3320 H   0  0
    8.0550   -1.4260   -1.1860 H   0  0
  1  2  1  0
  2  3  2  0
  2  4  1  0
  3  5  1  0
  4  6  2  0
  5  7  2  0
  5  8  1  0
  7  9  1  0
  8 10  1  0
  8 11  1  0
  8 12  1  0
  9 13  1  0
 10 14  1  0
 14 15  1  0
 14 16  1  0
 14 17  1  0
 16 18  1  0
 18 19  1  0
 18 20  2  0
 19 21  1  0
 20 22  1  0
 21 23  1  0
 22 24  1  0
 23 25  2  0
 24 26  2  0
  6  7  1  0
 21 22  2  0
 25 26  1  0
  3 27  1  0
  4 28  1  0
  6 29  1  0
 10 30  1  0
 10 31  1  0
 11 32  1  0
 11 33  1  0
 11 34  1  0
 12 35  1  0
 12 36  1  0
 12 37  1  0
 13 38  1  0
 13 39  1  0
 13 40  1  0
 15 41  1  0
 16 42  1  0
 16 43  1  0
 17 44  1  0
 17 45  1  0
 17 46  1  0
 19 47  1  0
 20 48  1  0
 23 49  1  0
 24 50  1  0
 26 51  1  0
M  END
> <Name>
CHEMBL3233269

> <IC50 nM>
230

> <Molecule_ChEMBL_ID>
CHEMBL3233269

> <Smiles>
COc1ccc(F)cc1C(C)(C)CC(C)(O)Cc1cc2ccncc2[nH]1

$$$$
CHEMBL3261170
  SciTegic08162514323D

 50 52  0  0  1  0            999 V2000
   -0.2010   -2.3550   -0.2230 S   0  0
   -1.2420   -3.3650   -0.1760 O   0  0
    0.6480   -2.4610   -1.3950 O   0  0
   -1.0220   -0.8260   -0.3590 N   0  0
    0.7890   -2.5290    1.1840 C   0  0
   -1.7660   -0.5610   -1.5800 C   0  0  2  0  0  0
    0.9340   -3.7910    1.7910 C   0  0
    1.4530   -1.4100    1.7210 C   0  0
   -2.1370    0.9200   -1.6680 C   0  0
   -2.9840   -1.4800   -1.6740 C   0  0
    1.7400   -3.9320    2.9340 C   0  0
    0.2360   -4.9790    1.2290 C   0  0
    2.2580   -1.5550    2.8650 C   0  0
    1.3070   -0.0740    1.0860 C   0  0
   -0.9360    1.7580   -1.7890 N   0  0
    2.4020   -2.8140    3.4710 C   0  0
   -1.0550    3.0980   -1.8590 C   0  0
    3.2540   -2.9650    4.6800 C   0  0
    0.1760    3.8300   -1.9670 C   0  0
   -2.2990    3.7790   -1.8300 C   0  0
    0.0900    5.2130   -2.0410 C   0  0
    1.4590    3.2770   -2.0060 C   0  0
   -2.3300    5.1950   -1.9080 C   0  0
    1.3870    5.5880   -2.1310 N   0  0
   -1.1250    5.9320   -2.0160 C   0  0
    2.1660    4.4550   -2.1110 N   0  0
   -1.6580   -0.7050    0.4390 H   0  0
   -1.0270   -0.8180   -2.3380 H   0  0
   -2.7010    1.2290   -0.7870 H   0  0
   -2.7910    1.1040   -2.5200 H   0  0
   -2.6740   -2.5180   -1.8070 H   0  0
   -3.5960   -1.4040   -0.7750 H   0  0
   -3.6080   -1.2090   -2.5270 H   0  0
    1.8500   -4.9000    3.4000 H   0  0
    0.3120   -5.0720    0.1450 H   0  0
   -0.8220   -4.9340    1.4860 H   0  0
    0.6480   -5.8850    1.6700 H   0  0
    2.7680   -0.6950    3.2770 H   0  0
    1.3530   -0.0880   -0.0040 H   0  0
    2.0940    0.5880    1.4450 H   0  0
    0.3500    0.3610    1.3730 H   0  0
   -0.0310    1.3340   -1.8220 H   0  0
    3.7230   -2.0410    5.0180 H   0  0
    4.0450   -3.6860    4.4790 H   0  0
    2.6520   -3.3520    5.5020 H   0  0
   -3.2290    3.2310   -1.7480 H   0  0
    1.8400    2.2660   -1.9710 H   0  0
   -3.2770    5.7150   -1.8870 H   0  0
    1.7190    6.5220   -2.2010 H   0  0
   -1.1390    7.0100   -2.0740 H   0  0
  1  2  2  0
  1  3  2  0
  1  4  1  0
  1  5  1  0
  4  6  1  0
  5  7  2  0
  5  8  1  0
  6  9  1  0
  6 10  1  0
  7 11  1  0
  7 12  1  0
  8 13  2  0
  8 14  1  0
  9 15  1  0
 11 16  2  0
 15 17  1  0
 16 18  1  0
 17 19  2  0
 17 20  1  0
 19 21  1  0
 19 22  1  0
 20 23  2  0
 21 24  1  0
 21 25  2  0
 22 26  2  0
 13 16  1  0
 23 25  1  0
 24 26  1  0
  4 27  1  0
  6 28  1  0
  9 29  1  0
  9 30  1  0
 10 31  1  0
 10 32  1  0
 10 33  1  0
 11 34  1  0
 12 35  1  0
 12 36  1  0
 12 37  1  0
 13 38  1  0
 14 39  1  0
 14 40  1  0
 14 41  1  0
 15 42  1  0
 18 43  1  0
 18 44  1  0
 18 45  1  0
 20 46  1  0
 22 47  1  0
 23 48  1  0
 24 49  1  0
 25 50  1  0
M  END
> <Name>
CHEMBL3261170

> <IC50 nM>
760

> <Molecule_ChEMBL_ID>
CHEMBL3261170

> <Smiles>
Cc1cc(C)c(S(=O)(=O)N[C@@H](C)CNc2cccc3[nH]ncc23)c(C)c1

$$$$
CHEMBL3261171
  SciTegic08162514323D

 52 54  0  0  1  0            999 V2000
   -0.8420   -2.4300   -0.2050 S   0  0
   -2.0780   -3.1900   -0.1780 O   0  0
   -0.0190   -2.7150   -1.3670 O   0  0
   -1.3100   -0.7600   -0.3460 N   0  0
    0.0660   -2.8190    1.2130 C   0  0
   -1.9610   -0.3340   -1.5740 C   0  0  2  0  0  0
   -0.0760   -4.0840    1.8140 C   0  0
    0.9490   -1.8710    1.7640 C   0  0
   -2.0040    1.1910   -1.6560 C   0  0
   -3.3460   -0.9710   -1.6930 C   0  0
    0.6640   -4.3990    2.9670 C   0  0
   -1.0060   -5.0900    1.2360 C   0  0
    1.6880   -2.1900    2.9180 C   0  0
    1.1060   -0.5330    1.1350 C   0  0
   -0.6480    1.7540   -1.7500 N   0  0
    1.5470   -3.4530    3.5200 C   0  0
   -0.4730    3.0880   -1.7660 C   0  0
    2.3280   -3.7870    4.7380 C   0  0
    0.8200    3.7050   -1.7790 C   0  0
   -1.6250    3.9140   -1.7660 C   0  0
    0.9360    5.1370   -1.7930 C   0  0
    2.0250    2.9340   -1.7790 C   0  0
   -1.5100    5.3220   -1.7790 C   0  0
    2.1740    5.7500   -1.8070 N   0  0
   -0.2380    5.9300   -1.7930 C   0  0
    3.2810    3.5840   -1.7950 C   0  0
    3.3280    4.9980   -1.8070 C   0  0
   -1.9180   -0.5040    0.4450 H   0  0
   -1.2830   -0.7400   -2.3240 H   0  0
   -2.5060    1.6110   -0.7830 H   0  0
   -2.5860    1.5160   -2.5200 H   0  0
   -3.2620   -2.0490   -1.8300 H   0  0
   -3.9410   -0.7700   -0.8050 H   0  0
   -3.8810   -0.5670   -2.5530 H   0  0
    0.5550   -5.3690    3.4300 H   0  0
   -0.9370   -5.1940    0.1540 H   0  0
   -2.0330   -4.8170    1.4800 H   0  0
   -0.8070   -6.0650    1.6800 H   0  0
    2.3650   -1.4630    3.3420 H   0  0
    1.1640   -0.5550    0.0450 H   0  0
    2.0140   -0.0590    1.5080 H   0  0
    0.2620    0.0990    1.4100 H   0  0
    0.1430    1.1440   -1.8050 H   0  0
    2.9830   -2.9860    5.0860 H   0  0
    2.9470   -4.6620    4.5430 H   0  0
    1.6470   -4.0370    5.5510 H   0  0
   -2.6170    3.4840   -1.7560 H   0  0
    2.0080    1.8530   -1.7720 H   0  0
   -2.4000    5.9340   -1.7810 H   0  0
   -0.1760    7.0100   -1.8030 H   0  0
    4.1950    3.0080   -1.7950 H   0  0
    4.2870    5.4960   -1.8170 H   0  0
  1  2  2  0
  1  3  2  0
  1  4  1  0
  1  5  1  0
  4  6  1  0
  5  7  2  0
  5  8  1  0
  6  9  1  0
  6 10  1  0
  7 11  1  0
  7 12  1  0
  8 13  2  0
  8 14  1  0
  9 15  1  0
 11 16  2  0
 15 17  1  0
 16 18  1  0
 17 19  2  0
 17 20  1  0
 19 21  1  0
 19 22  1  0
 20 23  2  0
 21 24  1  0
 21 25  2  0
 22 26  2  0
 24 27  2  0
 13 16  1  0
 23 25  1  0
 26 27  1  0
  4 28  1  0
  6 29  1  0
  9 30  1  0
  9 31  1  0
 10 32  1  0
 10 33  1  0
 10 34  1  0
 11 35  1  0
 12 36  1  0
 12 37  1  0
 12 38  1  0
 13 39  1  0
 14 40  1  0
 14 41  1  0
 14 42  1  0
 15 43  1  0
 18 44  1  0
 18 45  1  0
 18 46  1  0
 20 47  1  0
 22 48  1  0
 23 49  1  0
 25 50  1  0
 26 51  1  0
 27 52  1  0
M  END
> <Name>
CHEMBL3261171

> <IC50 nM>
1800

> <Molecule_ChEMBL_ID>
CHEMBL3261171

> <Smiles>
Cc1cc(C)c(S(=O)(=O)N[C@@H](C)CNc2cccc3ncccc23)c(C)c1

$$$$
CHEMBL3264936
  SciTegic08162514323D

 98103  0  0  0  0            999 V2000
   -3.5260   -4.1600   -0.9530 S   0  0
   -2.4880   -4.1930   -1.9690 O   0  0
   -3.0100   -3.9160    0.3830 O   0  0
   -4.5270   -2.9410   -1.3200 N   0  0
   -4.3320   -5.6840   -0.9530 C   0  0
   -4.0490   -1.6600   -1.3970 C   0  0
   -4.0410   -6.6310   -1.9490 C   0  0
   -5.2790   -5.9750    0.0430 C   0  0
   -4.9020   -0.6070   -1.7770 C   0  0
   -2.6990   -1.3910   -1.0940 C   0  0
   -4.6990   -7.8730   -1.9490 C   0  0
   -5.9400   -7.2170    0.0430 C   0  0
   -4.4120    0.7070   -1.8570 C   0  0
   -2.2090   -0.0760   -1.1740 C   0  0
   -5.6510   -8.1700   -0.9530 C   0  0
   -3.0630    0.9750   -1.5550 C   0  0
   -6.3320   -9.4550   -0.9530 C   0  0
   -2.5550    2.3360   -1.6370 C   0  0
   -7.7380   -9.5100   -0.9530 C   0  0
   -5.5860  -10.6510   -0.9530 C   0  0
   -1.6410    2.6890   -2.6480 C   0  0
   -2.9730    3.3050   -0.7030 C   0  0
   -8.3950  -10.7520   -0.9530 C   0  0
   -6.2460  -11.8910   -0.9530 C   0  0
   -1.1500    4.0040   -2.7270 C   0  0
   -2.4810    4.6190   -0.7830 C   0  0
   -7.6510  -11.9450   -0.9530 C   0  0
   -1.5700    4.9710   -1.7950 C   0  0
   -8.2680  -13.1100   -0.9530 O   0  0
   -1.0510    6.3590   -1.8770 C   0  0
   -7.4730  -14.2870   -0.9530 C   0  0
    0.0140    6.6270   -0.8130 C   0  0
    1.1410    5.5940   -0.8320 C   0  0
    2.2910    5.9810    0.0590 C   0  0
    2.4360    5.5390    1.2600 N   0  0
    3.3070    6.8540   -0.3260 N   0  0
    3.4630    6.0250    1.7420 N   0  0
    4.0900    6.8750    0.8160 C   0  0
    3.4980    7.5570   -1.5900 C   0  0
    3.9530    5.7540    3.0900 C   0  0
    5.1110    7.5000    0.9800 O   0  0
    3.9490    9.0040   -1.3870 C   0  0
    5.0760    4.7770    3.0780 C   0  0
    4.8110    3.3980    3.1560 C   0  0
    6.4040    5.2310    2.9860 C   0  0
    5.8710    2.4770    3.1450 C   0  0
    7.4630    4.3090    2.9750 C   0  0
    7.1990    2.9300    3.0550 C   0  0
    8.3200    1.9530    3.0410 C   0  0
    8.5310    2.0430    1.5290 C   0  0
    7.8630    0.5660    3.4920 C   0  0
    9.5220    2.4670    3.8360 C   0  0
   -5.4960   -3.1250   -1.4900 H   0  0
   -3.3130   -6.4060   -2.7130 H   0  0
   -5.5040   -5.2460    0.8070 H   0  0
   -5.9420   -0.7950   -2.0140 H   0  0
   -2.0270   -2.1860   -0.7990 H   0  0
   -4.4650   -8.5920   -2.7230 H   0  0
   -6.6660   -7.4260    0.8140 H   0  0
   -5.0800    1.5020   -2.1520 H   0  0
   -1.1720    0.1130   -0.9380 H   0  0
   -8.3260   -8.6040   -0.9530 H   0  0
   -4.5060  -10.6270   -0.9530 H   0  0
   -1.3090    1.9590   -3.3730 H   0  0
   -3.6740    3.0510    0.0800 H   0  0
   -9.4750  -10.7890   -0.9530 H   0  0
   -5.6700  -12.8050   -0.9530 H   0  0
   -0.4510    4.2700   -3.5060 H   0  0
   -2.8070    5.3560   -0.0640 H   0  0
   -0.6500    6.5390   -2.8750 H   0  0
   -1.8770    7.0630   -1.7810 H   0  0
   -8.0060  -15.2370   -0.9530 H   0  0
   -6.8300  -14.2640   -0.0720 H   0  0
   -6.8300  -14.2640   -1.8340 H   0  0
    0.4160    7.6370   -0.9140 H   0  0
   -0.4380    6.6880    0.1780 H   0  0
    1.4770    5.5330   -1.8670 H   0  0
    0.7660    4.6110   -0.5450 H   0  0
    4.2170    7.0140   -2.2030 H   0  0
    2.5760    7.5180   -2.1720 H   0  0
    3.1410    5.3630    3.7010 H   0  0
    4.2870    6.6840    3.5490 H   0  0
    3.9430    9.5470   -2.3320 H   0  0
    3.2950    9.5160   -0.6800 H   0  0
    4.9630    9.0390   -0.9880 H   0  0
    3.7930    3.0430    3.2250 H   0  0
    6.6130    6.2890    2.9280 H   0  0
    5.6600    1.4180    3.2050 H   0  0
    8.4810    4.6640    2.9060 H   0  0
    7.6190    1.8160    0.9790 H   0  0
    9.3010    1.3440    1.2050 H   0  0
    8.8520    3.0450    1.2440 H   0  0
    7.2560    0.6110    4.3970 H   0  0
    8.7210   -0.0740    3.6970 H   0  0
    7.2680    0.0860    2.7150 H   0  0
    9.2340    2.8050    4.8320 H   0  0
    9.9940    3.3050    3.3220 H   0  0
   10.2700    1.6820    3.9530 H   0  0
  1  2  2  0
  1  3  2  0
  1  4  1  0
  1  5  1  0
  4  6  1  0
  5  7  2  0
  5  8  1  0
  6  9  2  0
  6 10  1  0
  7 11  1  0
  8 12  2  0
  9 13  1  0
 10 14  2  0
 11 15  2  0
 13 16  2  0
 15 17  1  0
 16 18  1  0
 17 19  2  0
 17 20  1  0
 18 21  2  0
 18 22  1  0
 19 23  1  0
 20 24  2  0
 21 25  1  0
 22 26  2  0
 23 27  2  0
 25 28  2  0
 27 29  1  0
 28 30  1  0
 29 31  1  0
 30 32  1  0
 32 33  1  0
 33 34  1  0
 34 35  2  0
 34 36  1  0
 35 37  1  0
 36 38  1  0
 36 39  1  0
 37 40  1  0
 38 41  2  0
 39 42  1  0
 40 43  1  0
 43 44  2  0
 43 45  1  0
 44 46  1  0
 45 47  2  0
 46 48  2  0
 48 49  1  0
 49 50  1  0
 49 51  1  0
 49 52  1  0
 12 15  1  0
 14 16  1  0
 24 27  1  0
 26 28  1  0
 37 38  1  0
 47 48  1  0
  4 53  1  0
  7 54  1  0
  8 55  1  0
  9 56  1  0
 10 57  1  0
 11 58  1  0
 12 59  1  0
 13 60  1  0
 14 61  1  0
 19 62  1  0
 20 63  1  0
 21 64  1  0
 22 65  1  0
 23 66  1  0
 24 67  1  0
 25 68  1  0
 26 69  1  0
 30 70  1  0
 30 71  1  0
 31 72  1  0
 31 73  1  0
 31 74  1  0
 32 75  1  0
 32 76  1  0
 33 77  1  0
 33 78  1  0
 39 79  1  0
 39 80  1  0
 40 81  1  0
 40 82  1  0
 42 83  1  0
 42 84  1  0
 42 85  1  0
 44 86  1  0
 45 87  1  0
 46 88  1  0
 47 89  1  0
 50 90  1  0
 50 91  1  0
 50 92  1  0
 51 93  1  0
 51 94  1  0
 51 95  1  0
 52 96  1  0
 52 97  1  0
 52 98  1  0
M  END
> <Name>
CHEMBL3264936

> <IC50 nM>
32000

> <Molecule_ChEMBL_ID>
CHEMBL3264936

> <Smiles>
CCn1c(CCCc2ccc(-c3ccc(NS(=O)(=O)c4ccc(-c5ccc(OC)cc5)cc4)cc3)cc2)nn(Cc2ccc(C(C)(C)C)cc2)c1=O

$$$$
CHEMBL2407647
  SciTegic08162514323D

 65 69  0  0  1  0            999 V2000
    1.7320    2.2460    0.9470 O   0  0
    1.2970    1.1480    1.2010 C   0  0
    1.0250    0.1990    0.3030 O   0  0
    1.0250    0.7520    2.5060 N   0  0
    0.5290   -0.9530    1.0020 C   0  0  1  0  0  0
    0.5430   -0.5530    2.4610 C   0  0
    1.2130    1.5590    3.7130 C   0  0  1  0  0  0
   -0.8810   -1.2320    0.5470 C   0  0
    1.4470   -2.1370    0.7250 C   0  0
    0.2130   -1.2050    3.4240 O   0  0
    2.6190    2.0980    3.8030 C   0  0
    0.3420    2.8480    3.7230 C   0  0
   -1.2290   -2.3540    0.2560 O   0  0
   -1.7640   -0.1950    0.4710 N   0  0
    1.6000   -2.3830   -0.7340 C   0  0
    2.6500    3.4920    3.6210 C   0  0
    3.8380    1.4040    4.0370 C   0  0
    1.2710    4.0450    3.3950 C   0  0
   -3.1430   -0.4510    0.0310 C   0  0
    0.9200   -3.4530   -1.3420 C   0  0
    2.4200   -1.5430   -1.5080 C   0  0
    3.8970    4.1720    3.6680 C   0  0
    5.0740    2.0820    4.0820 C   0  0
   -3.2340   -0.5570   -1.4490 C   0  0
    1.0640   -3.6860   -2.7210 C   0  0
    2.5640   -1.7750   -2.8870 C   0  0
    5.1040    3.4770    3.8930 C   0  0
   -3.2740   -1.8220   -2.0620 C   0  0
   -3.2810    0.6060   -2.2360 C   0  0
    1.8850   -2.8480   -3.4920 C   0  0
   -3.3590   -1.9260   -3.4610 C   0  0
   -3.3670    0.5080   -3.6370 C   0  0
   -3.3950   -3.1110   -4.0370 O   0  0
   -3.4060   -0.7580   -4.2440 C   0  0
   -3.4120    1.6000   -4.3750 O   0  0
   -3.3030   -4.2580   -3.2050 C   0  0
   -3.3730    2.8540   -3.7110 C   0  0
    0.9960    0.9470    4.5780 H   0  0
    1.0700   -3.0370    1.2070 H   0  0
    2.4300   -1.9750    1.1700 H   0  0
   -0.5060    2.8030    3.0510 H   0  0
   -0.0660    2.9840    4.7150 H   0  0
   -1.4750    0.7320    0.7130 H   0  0
    3.8160    0.3340    4.1840 H   0  0
    1.1720    4.3500    2.3620 H   0  0
    1.0740    4.8990    4.0280 H   0  0
   -3.4980   -1.3770    0.4850 H   0  0
   -3.7870    0.3570    0.3770 H   0  0
    0.2870   -4.1020   -0.7520 H   0  0
    2.9450   -0.7170   -1.0470 H   0  0
    3.9200    5.2420    3.5260 H   0  0
    5.9880    1.5370    4.2580 H   0  0
    0.5430   -4.5100   -3.1850 H   0  0
    3.1950   -1.1310   -3.4800 H   0  0
    6.0410    4.0100    3.9220 H   0  0
   -3.2360   -2.7170   -1.4590 H   0  0
   -3.2520    1.5780   -1.7670 H   0  0
    1.9960   -3.0250   -4.5530 H   0  0
   -3.4730   -0.8360   -5.3200 H   0  0
   -2.4200   -4.3320   -2.5700 H   0  0
   -3.3320   -5.1430   -3.8400 H   0  0
   -4.1820   -4.2830   -2.5580 H   0  0
   -4.2640    2.9380   -3.0880 H   0  0
   -2.4160    2.9410   -3.1990 H   0  0
   -3.4200    3.6410   -4.4670 H   0  0
  1  2  2  0
  2  3  1  0
  2  4  1  0
  3  5  1  0
  4  6  1  0
  7  4  1  0
  5  8  1  0
  5  9  1  0
  6 10  2  0
  7 11  1  0
  7 12  1  0
  8 13  2  0
  8 14  1  0
  9 15  1  0
 11 16  2  0
 11 17  1  0
 12 18  1  0
 14 19  1  0
 15 20  2  0
 15 21  1  0
 16 22  1  0
 17 23  2  0
 19 24  1  0
 20 25  1  0
 21 26  2  0
 22 27  2  0
 24 28  2  0
 24 29  1  0
 25 30  2  0
 28 31  1  0
 29 32  2  0
 31 33  1  0
 31 34  2  0
 32 35  1  0
 33 36  1  0
 35 37  1  0
  5  6  1  0
 16 18  1  0
 23 27  1  0
 26 30  1  0
 32 34  1  0
  7 38  1  0
  9 39  1  0
  9 40  1  0
 12 41  1  0
 12 42  1  0
 14 43  1  0
 17 44  1  0
 18 45  1  0
 18 46  1  0
 19 47  1  0
 19 48  1  0
 20 49  1  0
 21 50  1  0
 22 51  1  0
 23 52  1  0
 25 53  1  0
 26 54  1  0
 27 55  1  0
 28 56  1  0
 29 57  1  0
 30 58  1  0
 34 59  1  0
 36 60  1  0
 36 61  1  0
 36 62  1  0
 37 63  1  0
 37 64  1  0
 37 65  1  0
M  END
> <Name>
CHEMBL2407647

> <IC50 nM>
20000

> <Molecule_ChEMBL_ID>
CHEMBL2407647

> <Smiles>
COc1cc(CNC(=O)[C@@]2(Cc3ccccc3)OC(=O)N([C@@H]3CCc4ccccc43)C2=O)cc(OC)c1

$$$$
CHEMBL213453
  SciTegic08162514323D

 62 65  0  0  1  0            999 V2000
    2.2730    2.8990    1.2500 F   0  0
    1.3050    2.0920    1.7890 C   0  0
    1.8280    1.3950    2.8480 F   0  0
    0.2580    2.8610    2.2210 F   0  0
    0.8100    1.1090    0.7270 C   0  0  3  0  0  0
    1.7810    0.0980    0.5760 O   0  0
    0.5700    1.7740   -0.6020 C   0  0
   -0.5140    0.4470    1.1060 C   0  0
    0.5820    2.9770   -0.7070 O   0  0
    0.3340    0.9860   -1.6930 N   0  0
   -0.4020   -0.4240    2.3630 C   0  0  3  0  0  0
    0.1150    1.5510   -2.8910 C   0  0
    0.6600   -1.4530    2.1270 C   0  0
   -1.7870   -1.0450    2.6620 C   0  0
   -0.0290    0.4790    3.5490 C   0  0
   -0.9200    1.0650   -3.7320 C   0  0
    0.9160    2.6390   -3.3260 C   0  0
    0.3480   -2.8360    1.9220 C   0  0
    2.0230   -1.0470    2.0900 C   0  0
   -2.0940   -2.2250    1.7360 C   0  0
    1.0980   -0.1050    4.4020 C   0  0
   -1.1470    1.6640   -4.9980 C   0  0
    0.6890    3.2400   -4.5880 C   0  0
    1.3930   -3.7680    1.6930 C   0  0
   -1.0530   -3.3300    1.9430 C   0  0
    3.0550   -1.9840    1.8570 C   0  0
    0.7380   -1.4670    5.0020 C   0  0
   -0.3440    2.7460   -5.4180 C   0  0
   -2.2230    1.1820   -5.9120 C   0  0
    2.7380   -3.3460    1.6600 C   0  0
   -0.6310    3.3320   -6.7560 C   0  0
   -2.4020    1.7480   -7.0590 N   0  0
   -3.1170    0.0310   -5.5290 C   0  0
    0.0040    4.2640   -7.1990 O   0  0
   -1.6150    2.8710   -7.5650 O   0  0
    1.4450   -0.5270   -0.0840 H   0  0
   -1.2990    1.1950    1.2230 H   0  0
   -0.9100   -0.1310    0.2700 H   0  0
    0.3240   -0.0080   -1.6020 H   0  0
   -2.5680   -0.2910    2.5720 H   0  0
   -1.8260   -1.3960    3.6950 H   0  0
    0.2300    1.4810    3.2050 H   0  0
   -0.9040    0.6950    4.1600 H   0  0
   -1.5370    0.2380   -3.4120 H   0  0
    1.7110    3.0250   -2.7010 H   0  0
    2.2870   -0.0100    2.2360 H   0  0
   -3.0940   -2.6090    1.9340 H   0  0
   -2.0900   -1.8930    0.6970 H   0  0
    2.0230   -0.1680    3.8300 H   0  0
    1.3910    0.5940    5.1860 H   0  0
    1.3070    4.0680   -4.9060 H   0  0
    1.1620   -4.8130    1.5430 H   0  0
   -1.2250   -3.8110    2.9080 H   0  0
   -1.1950   -4.1000    1.1840 H   0  0
    4.0840   -1.6600    1.8320 H   0  0
    1.3910   -1.7010    5.8420 H   0  0
   -0.2970   -1.4770    5.3400 H   0  0
    0.8550   -2.2560    4.2600 H   0  0
    3.5250   -4.0620    1.4820 H   0  0
   -3.8520   -0.2230   -6.2950 H   0  0
   -3.6600    0.2740   -4.6150 H   0  0
   -2.5180   -0.8570   -5.3340 H   0  0
  1  2  1  0
  2  3  1  0
  2  4  1  0
  2  5  1  0
  5  6  1  0
  5  7  1  0
  5  8  1  0
  7  9  2  0
  7 10  1  0
  8 11  1  0
 10 12  1  0
 11 13  1  0
 11 14  1  0
 11 15  1  0
 12 16  2  0
 12 17  1  0
 13 18  2  0
 13 19  1  0
 14 20  1  0
 15 21  1  0
 16 22  1  0
 17 23  2  0
 18 24  1  0
 18 25  1  0
 19 26  2  0
 21 27  1  0
 22 28  2  0
 22 29  1  0
 24 30  2  0
 28 31  1  0
 29 32  2  0
 29 33  1  0
 31 34  2  0
 31 35  1  0
 20 25  1  0
 23 28  1  0
 26 30  1  0
 32 35  1  0
  6 36  1  0
  8 37  1  0
  8 38  1  0
 10 39  1  0
 14 40  1  0
 14 41  1  0
 15 42  1  0
 15 43  1  0
 16 44  1  0
 17 45  1  0
 19 46  1  0
 20 47  1  0
 20 48  1  0
 21 49  1  0
 21 50  1  0
 23 51  1  0
 24 52  1  0
 25 53  1  0
 25 54  1  0
 26 55  1  0
 27 56  1  0
 27 57  1  0
 27 58  1  0
 30 59  1  0
 33 60  1  0
 33 61  1  0
 33 62  1  0
M  END
> <Name>
CHEMBL213453

> <IC50 nM>
5.62

> <Molecule_ChEMBL_ID>
CHEMBL213453

> <Smiles>
CCCC1(CC(O)(C(=O)Nc2ccc3c(=O)onc(C)c3c2)C(F)(F)F)CCCc2ccccc21

$$$$
CHEMBL181604
  SciTegic08162514323D

 62 65  0  0  0  0            999 V2000
   -4.8750   -3.1430   -0.5880 S   0  0
   -4.4670   -4.1880   -1.5080 O   0  0
   -5.2990   -3.6500    0.7050 O   0  0
   -3.5940   -2.1840   -0.3380 N   0  0
   -6.2270   -2.2270   -1.3180 C   0  0
   -2.3400   -2.7290   -0.2340 C   0  0
   -1.1840   -1.9810   -0.5600 C   0  0
   -2.2130   -4.0610    0.2070 C   0  0
    0.0940   -2.5780   -0.4390 C   0  0
   -1.3110   -0.5660   -1.0290 C   0  0
   -0.9430   -4.6490    0.3240 C   0  0
    1.2380   -1.8850   -0.7460 N   0  0
    0.2070   -3.9100    0.0020 C   0  0
    1.4920   -1.4120   -2.1150 C   0  0
    2.2310   -1.6060    0.3010 C   0  0
    2.6720   -0.5080   -2.1700 C   0  0
    2.0140   -0.2720    0.9180 C   0  0
    2.5180    0.8810   -1.9940 C   0  0
    3.9510   -1.0470   -2.4020 C   0  0
    3.0330    0.6950    0.8830 C   0  0
    0.7870    0.0250    1.5390 C   0  0
    1.3150    1.4060   -1.7750 F   0  0
    3.6430    1.7250   -2.0450 C   0  0
    5.0720   -0.2010   -2.4550 C   0  0
    2.8260    1.9570    1.4670 C   0  0
    0.5840    1.2870    2.1230 C   0  0
    4.9200    1.1840   -2.2750 C   0  0
    1.6020    2.2560    2.0900 C   0  0
    5.9830    1.9820   -2.3240 F   0  0
    1.4080    3.4390    2.6370 O   0  0
    0.2270    4.0020    2.4920 C   0  0
   -0.4960    3.8320    1.2990 C   0  0
   -0.3180    4.7770    3.5330 C   0  0
   -1.7580    4.4320    1.1450 C   0  0
   -1.5800    5.3770    3.3790 C   0  0
   -2.3010    5.2050    2.1860 C   0  0
   -3.7170   -1.1930   -0.2600 H   0  0
   -7.1270   -2.8160   -1.4920 H   0  0
   -5.9100   -1.8130   -2.2750 H   0  0
   -6.4960   -1.3950   -0.6680 H   0  0
   -3.0840   -4.6470    0.4610 H   0  0
   -2.1480   -0.0900   -0.5230 H   0  0
   -0.3670   -0.0430   -0.8650 H   0  0
   -1.5160   -0.5550   -2.1000 H   0  0
   -0.8520   -5.6680    0.6640 H   0  0
    1.1740   -4.3850    0.1020 H   0  0
    0.6130   -0.8830   -2.4800 H   0  0
    1.6620   -2.2700   -2.7660 H   0  0
    3.2310   -1.6470   -0.1330 H   0  0
    2.1700   -2.3770    1.0690 H   0  0
    4.0760   -2.1110   -2.5410 H   0  0
    3.9790    0.4750    0.4060 H   0  0
    0.0000   -0.7130    1.5700 H   0  0
    3.5240    2.7890   -1.9080 H   0  0
    6.0530   -0.6230   -2.6350 H   0  0
    3.6130    2.6970    1.4380 H   0  0
   -0.3590    1.5100    2.6000 H   0  0
   -0.0840    3.2380    0.4960 H   0  0
    0.2310    4.9120    4.4510 H   0  0
   -2.3110    4.2990    0.2270 H   0  0
   -1.9960    5.9730    4.1800 H   0  0
   -3.2700    5.6660    2.0670 H   0  0
  1  2  2  0
  1  3  2  0
  1  4  1  0
  1  5  1  0
  4  6  1  0
  6  7  2  0
  6  8  1  0
  7  9  1  0
  7 10  1  0
  8 11  2  0
  9 12  1  0
  9 13  2  0
 12 14  1  0
 12 15  1  0
 14 16  1  0
 15 17  1  0
 16 18  2  0
 16 19  1  0
 17 20  2  0
 17 21  1  0
 18 22  1  0
 18 23  1  0
 19 24  2  0
 20 25  1  0
 21 26  2  0
 23 27  2  0
 25 28  2  0
 27 29  1  0
 28 30  1  0
 30 31  1  0
 31 32  2  0
 31 33  1  0
 32 34  1  0
 33 35  2  0
 34 36  2  0
 11 13  1  0
 24 27  1  0
 26 28  1  0
 35 36  1  0
  4 37  1  0
  5 38  1  0
  5 39  1  0
  5 40  1  0
  8 41  1  0
 10 42  1  0
 10 43  1  0
 10 44  1  0
 11 45  1  0
 13 46  1  0
 14 47  1  0
 14 48  1  0
 15 49  1  0
 15 50  1  0
 19 51  1  0
 20 52  1  0
 21 53  1  0
 23 54  1  0
 24 55  1  0
 25 56  1  0
 26 57  1  0
 32 58  1  0
 33 59  1  0
 34 60  1  0
 35 61  1  0
 36 62  1  0
M  END
> <Name>
CHEMBL181604

> <IC50 nM>
95

> <Molecule_ChEMBL_ID>
CHEMBL181604

> <Smiles>
Cc1c(NS(C)(=O)=O)cccc1N(Cc1ccc(Oc2ccccc2)cc1)Cc1ccc(F)cc1F

$$$$
CHEMBL3138365
  SciTegic08162514323D

148155  0  0  1  0            999 V2000
   14.1510    3.4530    4.6540 S   0  0
   13.1620    2.3950    4.7680 O   0  0
   15.1700    3.1820    3.6560 O   0  0
   13.3710    4.8010    4.2010 N   0  0
   14.9420    3.6740    6.2420 C   0  0
   12.7600    4.8590    2.9750 C   0  0
   12.1800    6.0610    2.5000 C   0  0
   12.7130    3.6970    2.1840 C   0  0
   11.5550    6.0820    1.2300 C   0  0
   12.2250    7.3010    3.3380 C   0  0
   12.0940    3.7230    0.9240 C   0  0
   10.9820    7.2270    0.7360 N   0  0
   11.5160    4.9100    0.4490 C   0  0
    9.7950    7.8130    1.3730 C   0  0
   11.5550    7.8850   -0.4470 C   0  0
    8.8890    6.7660    1.9120 C   0  0
   12.9710    8.2810   -0.2210 C   0  0
    8.6480    6.6860    3.2950 C   0  0
    8.2700    5.8540    1.0390 C   0  0
   14.0140    7.4960   -0.7440 C   0  0
   13.2680    9.4400    0.5180 C   0  0
    7.7910    5.6950    3.8030 C   0  0
    7.4120    4.8630    1.5490 C   0  0
   15.3520    7.8710   -0.5290 C   0  0
   14.6060    9.8150    0.7320 C   0  0
    7.1700    4.7810    2.9340 C   0  0
   15.6470    9.0310    0.2090 C   0  0
    6.3670    3.8540    3.4100 O   0  0
    5.2990    3.5370    2.7070 C   0  0
    4.8570    2.2030    2.6520 C   0  0
    4.5960    4.5330    2.0060 C   0  0
    3.7190    1.8650    1.9000 C   0  0
    3.4570    4.1970    1.2540 C   0  0
    3.0180    2.8630    1.2010 C   0  0
    3.2540    0.4530    1.8460 C   0  0
    2.0060    0.3050    0.9750 C   0  0
    1.5080   -1.1390    0.9000 C   0  0
    0.2730   -1.2750    0.0490 C   0  0
   -0.2150   -0.3160   -0.5000 O   0  0
   -0.2910   -2.5120   -0.0920 N   0  0
   -1.4980   -2.6640   -0.9200 C   0  0
   -1.9650   -4.1190   -0.9450 C   0  0
   -3.1170   -4.1990   -1.7500 O   0  0
   -3.6230   -5.5160   -1.8730 C   0  0  1  0  0  0
   -4.3730   -5.9260   -0.5840 C   0  0
   -4.5080   -5.5940   -3.1250 C   0  0
   -5.9160   -5.8110   -0.6620 C   0  0  1  0  0  0
   -5.8360   -4.8160   -3.0060 C   0  0
   -6.3850   -4.6410   -1.5590 C   0  0  1  0  0  0
   -6.5780   -7.1370   -1.0800 C   0  0
   -7.9400   -4.5370   -1.5370 C   0  0  2  0  0  0
   -5.8320   -3.3320   -0.9650 C   0  0
   -8.1120   -7.0470   -1.0290 C   0  0  1  0  0  0
   -8.6760   -5.8670   -1.8610 C   0  0  1  0  0  0
   -8.4630   -3.3420   -2.3810 C   0  0
   -8.6290   -8.2740   -1.5040 O   0  0
  -10.1840   -5.6540   -1.5470 C   0  0  1  0  0  0
   -9.8870   -3.5220   -2.9450 C   0  0  2  0  0  0
  -10.7760   -4.2720   -1.9320 C   0  0  1  0  0  0
  -11.1290   -6.6390   -2.2380 C   0  0
   -9.8010   -4.2230   -4.1760 O   0  0
  -12.2000   -4.5510   -2.4790 C   0  0  1  0  0  0
  -10.8870   -3.4570   -0.6350 C   0  0
  -12.4850   -5.9790   -2.0330 C   0  0
  -13.3130   -3.6090   -2.0200 C   0  0  2  0  0  0
  -14.6720   -4.2170   -2.3630 C   0  0
  -13.1060   -2.2310   -2.6480 C   0  0
  -15.8340   -3.2680   -2.0760 C   0  0
  -17.1740   -3.9260   -2.2600 C   0  0
  -17.2560   -5.0820   -2.6070 O   0  0
  -18.2250   -3.1480   -2.0160 O   0  0
   13.3380    5.5880    4.8160 H   0  0
   15.4830    2.7990    6.6000 H   0  0
   14.1920    3.9320    6.9900 H   0  0
   15.6510    4.5020    6.1840 H   0  0
   13.1500    2.7720    2.5290 H   0  0
   12.0800    8.2250    2.7770 H   0  0
   13.1900    7.3630    3.8420 H   0  0
   11.4510    7.2500    4.1040 H   0  0
   12.0610    2.8280    0.3200 H   0  0
   11.0450    4.9080   -0.5230 H   0  0
   10.1090    8.4730    2.1820 H   0  0
    9.2580    8.4180    0.6410 H   0  0
   10.9650    8.7680   -0.6880 H   0  0
   11.5000    7.2050   -1.2970 H   0  0
    9.1210    7.3850    3.9710 H   0  0
    8.4490    5.9100   -0.0250 H   0  0
   13.7930    6.6040   -1.3130 H   0  0
   12.4710   10.0470    0.9240 H   0  0
    7.6110    5.6370    4.8670 H   0  0
    6.9390    4.1660    0.8750 H   0  0
   16.1520    7.2700   -0.9340 H   0  0
   14.8320   10.7050    1.2990 H   0  0
   16.6740    9.3190    0.3730 H   0  0
    5.3980    1.4380    3.1900 H   0  0
    4.9320    5.5590    2.0450 H   0  0
    2.9200    4.9650    0.7170 H   0  0
    2.1410    2.6110    0.6230 H   0  0
    4.0610   -0.1800    1.4730 H   0  0
    3.0640    0.0940    2.8560 H   0  0
    1.2130    0.9690    1.3220 H   0  0
    2.1820    0.7050   -0.0230 H   0  0
    1.2850   -1.4340    1.9260 H   0  0
    2.2910   -1.7970    0.5250 H   0  0
    0.1130   -3.3050    0.3630 H   0  0
   -2.2810   -2.0140   -0.5310 H   0  0
   -1.2870   -2.3090   -1.9280 H   0  0
   -1.1990   -4.7620   -1.3830 H   0  0
   -2.2270   -4.4570    0.0590 H   0  0
   -2.7480   -6.1540   -2.0040 H   0  0
   -4.0080   -5.3440    0.2660 H   0  0
   -4.1080   -6.9530   -0.3380 H   0  0
   -3.9610   -5.2580   -4.0080 H   0  0
   -4.7230   -6.6430   -3.3180 H   0  0
   -6.2640   -5.6150    0.3540 H   0  0
   -6.5710   -5.3200   -3.6350 H   0  0
   -5.7030   -3.8360   -3.4630 H   0  0
   -6.2380   -7.9340   -0.4200 H   0  0
   -6.2620   -7.4200   -2.0820 H   0  0
   -8.2090   -4.3160   -0.5020 H   0  0
   -4.9360   -3.5020   -0.3710 H   0  0
   -6.5740   -2.8570   -0.3220 H   0  0
   -5.5780   -2.6270   -1.7580 H   0  0
   -8.4180   -6.9470    0.0100 H   0  0
   -8.5390   -6.0900   -2.9200 H   0  0
   -7.7830   -3.1020   -3.1990 H   0  0
   -8.4460   -2.4530   -1.7480 H   0  0
   -9.3420   -8.5350   -0.9000 H   0  0
  -10.3190   -5.8010   -0.4820 H   0  0
  -10.3170   -2.5490   -3.1820 H   0  0
  -11.1080   -7.6230   -1.7950 H   0  0
  -10.9030   -6.7380   -3.2910 H   0  0
   -9.3110   -3.6580   -4.7930 H   0  0
  -12.2010   -4.5430   -3.5590 H   0  0
  -11.5020   -3.9630    0.1090 H   0  0
  -11.3360   -2.4820   -0.8300 H   0  0
   -9.9030   -3.2910   -0.1990 H   0  0
  -13.2620   -6.4450   -2.6210 H   0  0
  -12.7780   -6.0200   -0.9920 H   0  0
  -13.1720   -3.5630   -0.9380 H   0  0
  -14.8110   -5.1660   -1.8460 H   0  0
  -14.6940   -4.5490   -3.4020 H   0  0
  -13.7990   -1.5060   -2.2250 H   0  0
  -12.0840   -1.8830   -2.4880 H   0  0
  -13.2800   -2.2700   -3.7250 H   0  0
  -15.7270   -2.4390   -2.7770 H   0  0
  -15.7580   -2.8590   -1.0660 H   0  0
  -19.1160   -3.5120   -2.1170 H   0  0
  1  2  2  0
  1  3  2  0
  1  4  1  0
  1  5  1  0
  4  6  1  0
  6  7  2  0
  6  8  1  0
  7  9  1  0
  7 10  1  0
  8 11  2  0
  9 12  1  0
  9 13  2  0
 12 14  1  0
 12 15  1  0
 14 16  1  0
 15 17  1  0
 16 18  2  0
 16 19  1  0
 17 20  2  0
 17 21  1  0
 18 22  1  0
 19 23  2  0
 20 24  1  0
 21 25  2  0
 22 26  2  0
 24 27  2  0
 26 28  1  0
 28 29  1  0
 29 30  2  0
 29 31  1  0
 30 32  1  0
 31 33  2  0
 32 34  2  0
 32 35  1  0
 35 36  1  0
 36 37  1  0
 37 38  1  0
 38 39  2  0
 38 40  1  0
 40 41  1  0
 41 42  1  0
 42 43  1  0
 44 43  1  0
 44 45  1  0
 44 46  1  0
 47 45  1  0
 46 48  1  0
 47 49  1  0
 47 50  1  0
 49 51  1  0
 49 52  1  0
 50 53  1  0
 54 51  1  0
 51 55  1  0
 53 56  1  0
 54 57  1  0
 55 58  1  0
 57 59  1  0
 57 60  1  0
 58 61  1  0
 59 62  1  0
 59 63  1  0
 60 64  1  0
 62 65  1  0
 65 66  1  0
 65 67  1  0
 66 68  1  0
 68 69  1  0
 69 70  2  0
 69 71  1  0
 11 13  1  0
 23 26  1  0
 25 27  1  0
 33 34  1  0
 48 49  1  0
 53 54  1  0
 58 59  1  0
 62 64  1  0
  4 72  1  0
  5 73  1  0
  5 74  1  0
  5 75  1  0
  8 76  1  0
 10 77  1  0
 10 78  1  0
 10 79  1  0
 11 80  1  0
 13 81  1  0
 14 82  1  0
 14 83  1  0
 15 84  1  0
 15 85  1  0
 18 86  1  0
 19 87  1  0
 20 88  1  0
 21 89  1  0
 22 90  1  0
 23 91  1  0
 24 92  1  0
 25 93  1  0
 27 94  1  0
 30 95  1  0
 31 96  1  0
 33 97  1  0
 34 98  1  0
 35 99  1  0
 35100  1  0
 36101  1  0
 36102  1  0
 37103  1  0
 37104  1  0
 40105  1  0
 41106  1  0
 41107  1  0
 42108  1  0
 42109  1  0
 44110  1  0
 45111  1  0
 45112  1  0
 46113  1  0
 46114  1  0
 47115  1  0
 48116  1  0
 48117  1  0
 50118  1  0
 50119  1  0
 51120  1  0
 52121  1  0
 52122  1  0
 52123  1  0
 53124  1  0
 54125  1  0
 55126  1  0
 55127  1  0
 56128  1  0
 57129  1  0
 58130  1  0
 60131  1  0
 60132  1  0
 61133  1  0
 62134  1  0
 63135  1  0
 63136  1  0
 63137  1  0
 64138  1  0
 64139  1  0
 65140  1  0
 66141  1  0
 66142  1  0
 67143  1  0
 67144  1  0
 67145  1  0
 68146  1  0
 68147  1  0
 71148  1  0
M  END
> <Name>
CHEMBL3138365

> <IC50 nM>
62

> <Molecule_ChEMBL_ID>
CHEMBL3138365

> <Smiles>
Cc1c(NS(C)(=O)=O)cccc1N(Cc1ccccc1)Cc1ccc(Oc2cccc(CCCC(=O)NCCO[C@@H]3CC[C@]4(C)[C@H](C3)C[C@H](O)[C@@H]3[C@@H]4C[C@@H](O)[C@]4(C)[C@H]3CC[C@H]4[C@@H](C)CCC(=O)O)c2)cc1

$$$$
CHEMBL304482
  SciTegic08162514323D

 50 53  0  0  1  0            999 V2000
   -4.4410   -1.7640    1.0430 S   0  0
   -4.2110   -2.5900   -0.1290 O   0  0
   -4.1040   -2.4300    2.2870 O   0  0
   -3.4900   -0.4590    0.9120 N   0  0
   -6.1680   -1.2950    1.0880 C   0  0
   -2.1580   -0.6040    0.8550 C   0  0
   -1.3160    0.5270    0.7380 C   0  0
   -1.5760   -1.8910    0.9120 C   0  0
    0.0980    0.3890    0.6760 C   0  0
   -0.1740   -2.0450    0.8650 C   0  0
    0.6840   -0.9120    0.7770 C   0  0
    0.9860    1.5860    0.5330 C   0  0  1  0  0  0
    2.1660   -1.0250    0.7770 C   0  0
    2.2930    1.2700    0.0350 O   0  0
    0.4220    2.6330   -0.3670 C   0  0
    2.9100    0.1150    0.3570 C   0  0
    2.8870   -2.2010    1.1680 C   0  0
    0.2090    2.3500   -1.7290 C   0  0
    0.1040    3.9040    0.1410 C   0  0
    4.3180    0.0630    0.2560 C   0  0
    2.2810   -3.2970    1.6500 O   0  0
    4.2970   -2.2380    1.0720 C   0  0
   -0.3220    3.3340   -2.5820 C   0  0
   -0.4280    4.8890   -0.7090 C   0  0
    5.0120   -1.1130    0.6090 C   0  0
    2.9830   -4.5290    1.5800 C   0  0
   -0.5210    3.0680   -3.8580 O   0  0
   -0.6410    4.6040   -2.0680 C   0  0
   -0.1350    1.7890   -4.3400 C   0  0
   -3.8970    0.4550    0.8750 H   0  0
   -6.8570   -2.1350    1.1740 H   0  0
   -6.4200   -0.7480    0.1800 H   0  0
   -6.3420   -0.6310    1.9360 H   0  0
   -1.7620    1.5140    0.6950 H   0  0
   -2.1970   -2.7730    0.9900 H   0  0
    0.1910   -3.0590    0.8950 H   0  0
    1.1110    2.0250    1.5250 H   0  0
    0.4530    1.3750   -2.1230 H   0  0
    0.2640    4.1290    1.1860 H   0  0
    4.8690    0.9240   -0.0900 H   0  0
    4.8340   -3.1310    1.3550 H   0  0
   -0.6720    5.8650   -0.3180 H   0  0
    6.0880   -1.1520    0.5290 H   0  0
    2.3950   -5.4340    1.7340 H   0  0
    3.7740   -4.5160    2.3280 H   0  0
    3.4510   -4.6000    0.5980 H   0  0
   -1.0490    5.3630   -2.7190 H   0  0
   -0.3810    1.7360   -5.4010 H   0  0
    0.9100    1.6290   -4.0780 H   0  0
   -0.7280    1.0350   -3.8220 H   0  0
  1  2  2  0
  1  3  2  0
  1  4  1  0
  1  5  1  0
  4  6  1  0
  6  7  2  0
  6  8  1  0
  7  9  1  0
  8 10  2  0
  9 11  2  0
  9 12  1  0
 11 13  1  0
 12 14  1  0
 12 15  1  0
 13 16  2  0
 13 17  1  0
 15 18  2  0
 15 19  1  0
 16 20  1  0
 17 21  1  0
 17 22  2  0
 18 23  1  0
 19 24  2  0
 20 25  2  0
 21 26  1  0
 23 27  1  0
 23 28  2  0
 27 29  1  0
 10 11  1  0
 14 16  1  0
 22 25  1  0
 24 28  1  0
  4 30  1  0
  5 31  1  0
  5 32  1  0
  5 33  1  0
  7 34  1  0
  8 35  1  0
 10 36  1  0
 12 37  1  0
 18 38  1  0
 19 39  1  0
 20 40  1  0
 22 41  1  0
 24 42  1  0
 25 43  1  0
 26 44  1  0
 26 45  1  0
 26 46  1  0
 28 47  1  0
 29 48  1  0
 29 49  1  0
 29 50  1  0
M  END
> <Name>
CHEMBL304482

> <IC50 nM>
6

> <Molecule_ChEMBL_ID>
CHEMBL304482

> <Smiles>
COc1cccc(C2Oc3cccc(OC)c3-c3ccc(NS(C)(=O)=O)cc32)c1

$$$$
CHEMBL392499
  SciTegic08162514323D

 51 52  0  0  1  0            999 V2000
    4.1290    4.2710    1.0960 Cl  0  0
    2.4340    4.0350    0.9880 C   0  0
    1.8950    2.7380    1.0760 C   0  0
    1.5780    5.1390    0.8100 C   0  0
    0.5060    2.5450    0.9880 C   0  0
    0.1900    4.9450    0.7210 C   0  0
   -0.3480    3.6480    0.8090 C   0  0
   -0.0620    1.1760    1.0840 C   0  0
   -0.7130    6.1110    0.5310 C   0  0
   -0.7190    0.7460   -0.2290 C   0  0  2  0  0  0
    0.0080    1.3140   -1.2930 O   0  0
   -2.1720    1.2090   -0.3420 C   0  0
   -0.7280   -0.7720   -0.4140 C   0  0
   -2.9320    0.2050   -0.8870 F   0  0
   -2.2380    2.3180   -1.1450 F   0  0
   -2.6500    1.5180    0.9060 F   0  0
    0.5920   -1.4260   -0.0080 C   0  0
    0.3650   -2.6470   -0.8260 C   0  0
    1.8110   -0.6410   -0.4940 C   0  0
    0.6540   -1.7500    1.4840 C   0  0
   -0.5250   -3.6450   -0.3830 C   0  0
    1.0470   -2.8030   -2.0470 C   0  0
   -1.1700   -3.5100    0.7600 O   0  0
   -0.7280   -4.7950   -1.1660 C   0  0
    0.8420   -3.9550   -2.8260 C   0  0
   -2.2090   -4.4320    1.0510 C   0  0
   -0.0470   -4.9490   -2.3850 C   0  0
    1.4860   -4.1020   -3.9810 F   0  0
    2.5450    1.8850    1.2130 H   0  0
    1.9830    6.1390    0.7440 H   0  0
   -1.4160    3.5000    0.7400 H   0  0
    0.7230    0.4750    1.3670 H   0  0
   -0.7790    1.1350    1.9040 H   0  0
   -1.7710    5.8550    0.4820 H   0  0
   -0.4510    6.6270   -0.3950 H   0  0
   -0.5780    6.8140    1.3530 H   0  0
    0.9120    1.4650   -0.9750 H   0  0
   -1.5620   -1.2210    0.1250 H   0  0
   -0.9880   -1.0330   -1.4420 H   0  0
    2.7310   -1.2170   -0.3930 H   0  0
    1.9300    0.2790    0.0780 H   0  0
    1.7010   -0.3690   -1.5450 H   0  0
    1.0330   -2.7560    1.6660 H   0  0
   -0.3340   -1.6800    1.9350 H   0  0
    1.3090   -1.0490    2.0040 H   0  0
    1.7310   -2.0370   -2.3870 H   0  0
   -1.4100   -5.5630   -0.8320 H   0  0
   -2.9780   -4.3300    0.2870 H   0  0
   -1.7660   -5.4220    1.1620 H   0  0
   -2.6500   -4.1540    2.0080 H   0  0
   -0.2090   -5.8360   -2.9810 H   0  0
  1  2  1  0
  2  3  2  0
  2  4  1  0
  3  5  1  0
  4  6  2  0
  5  7  2  0
  5  8  1  0
  6  9  1  0
  8 10  1  0
 10 11  1  0
 10 12  1  0
 10 13  1  0
 12 14  1  0
 12 15  1  0
 12 16  1  0
 13 17  1  0
 17 18  1  0
 17 19  1  0
 17 20  1  0
 18 21  2  0
 18 22  1  0
 21 23  1  0
 21 24  1  0
 22 25  2  0
 23 26  1  0
 24 27  2  0
 25 28  1  0
  6  7  1  0
 25 27  1  0
  3 29  1  0
  4 30  1  0
  7 31  1  0
  8 32  1  0
  8 33  1  0
  9 34  1  0
  9 35  1  0
  9 36  1  0
 11 37  1  0
 13 38  1  0
 13 39  1  0
 19 40  1  0
 19 41  1  0
 19 42  1  0
 20 43  1  0
 20 44  1  0
 20 45  1  0
 22 46  1  0
 24 47  1  0
 26 48  1  0
 26 49  1  0
 26 50  1  0
 27 51  1  0
M  END
> <Name>
CHEMBL392499

> <IC50 nM>
46

> <Molecule_ChEMBL_ID>
CHEMBL392499

> <Smiles>
COc1ccc(F)cc1C(C)(C)CC(O)(Cc1cc(C)cc(Cl)c1)C(F)(F)F

$$$$
CHEMBL392500
  SciTegic08162514323D

 55 57  0  0  1  0            999 V2000
   -3.2070    5.6350    2.0180 F   0  0
   -2.5100    4.9750    1.0980 C   0  0
   -1.5570    4.0160    1.4860 C   0  0
   -2.7250    5.2340   -0.2680 C   0  0
   -0.8180    3.3180    0.5140 C   0  0
   -1.9860    4.5370   -1.2400 C   0  0
   -1.0330    3.5780   -0.8540 C   0  0
    0.1860    2.3070    0.9390 C   0  0
   -0.3480    2.9300   -1.7750 O   0  0
   -0.7270    1.1130    0.6520 C   0  0
    0.5290    2.4430    2.4220 C   0  0
    1.4240    2.3320    0.0410 C   0  0
   -0.9140    2.8180   -3.0720 C   0  0
    0.0100   -0.2230    0.7270 C   0  0  1  0  0  0
    1.2770    0.0020    1.3030 O   0  0
   -0.7950   -1.1110    1.6760 C   0  0
    0.2150   -0.8610   -0.6470 C   0  0
   -0.1540   -2.3130    1.8320 F   0  0
   -2.0450   -1.3240    1.1520 F   0  0
   -0.9100   -0.4940    2.8950 F   0  0
    1.0510   -2.0720   -0.5630 C   0  0
    0.4790   -3.3770   -0.5370 C   0  0
    2.4550   -1.9100   -0.5040 C   0  0
    1.3340   -4.5260   -0.4550 C   0  0
   -0.9340   -3.5470   -0.5960 C   0  0
    3.3030   -3.0350   -0.4240 C   0  0
    2.7500   -4.3400   -0.3980 C   0  0
    0.7440   -5.8210   -0.4300 C   0  0
   -1.4960   -4.8440   -0.5680 C   0  0
    3.6600   -5.4550   -0.3140 C   0  0
   -0.6600   -5.9770   -0.4880 C   0  0
    4.3930   -6.3540   -0.2480 N   0  0
   -1.3930    3.8160    2.5370 H   0  0
   -3.4550    5.9690   -0.5720 H   0  0
   -2.1540    4.7400   -2.2870 H   0  0
   -1.2190    1.2280   -0.3130 H   0  0
   -1.5880    1.1190    1.3200 H   0  0
    0.6580    3.4860    2.7150 H   0  0
    1.4550    1.9160    2.6520 H   0  0
   -0.2600    2.0190    3.0410 H   0  0
    1.6410    3.3360   -0.3220 H   0  0
    1.2830    1.6850   -0.8260 H   0  0
    2.2990    1.9760    0.5840 H   0  0
   -1.9650    2.5490   -2.9650 H   0  0
   -0.7050    3.7400   -3.6150 H   0  0
   -0.4120    2.0040   -3.5940 H   0  0
    1.5530   -0.8280    1.7230 H   0  0
    0.6720   -0.1520   -1.3360 H   0  0
   -0.7420   -1.1130   -1.1020 H   0  0
    2.8830   -0.9200   -0.5230 H   0  0
   -1.6000   -2.6990   -0.6560 H   0  0
    4.3730   -2.8790   -0.3810 H   0  0
    1.3480   -6.7150   -0.3690 H   0  0
   -2.5700   -4.9650   -0.6130 H   0  0
   -1.0920   -6.9650   -0.4690 H   0  0
  1  2  1  0
  2  3  2  0
  2  4  1  0
  3  5  1  0
  4  6  2  0
  5  7  2  0
  5  8  1  0
  7  9  1  0
  8 10  1  0
  8 11  1  0
  8 12  1  0
  9 13  1  0
 10 14  1  0
 14 15  1  0
 14 16  1  0
 14 17  1  0
 16 18  1  0
 16 19  1  0
 16 20  1  0
 17 21  1  0
 21 22  2  0
 21 23  1  0
 22 24  1  0
 22 25  1  0
 23 26  2  0
 24 27  2  0
 24 28  1  0
 25 29  2  0
 27 30  1  0
 28 31  2  0
 30 32  3  0
  6  7  1  0
 26 27  1  0
 29 31  1  0
  3 33  1  0
  4 34  1  0
  6 35  1  0
 10 36  1  0
 10 37  1  0
 11 38  1  0
 11 39  1  0
 11 40  1  0
 12 41  1  0
 12 42  1  0
 12 43  1  0
 13 44  1  0
 13 45  1  0
 13 46  1  0
 15 47  1  0
 17 48  1  0
 17 49  1  0
 23 50  1  0
 25 51  1  0
 26 52  1  0
 28 53  1  0
 29 54  1  0
 31 55  1  0
M  END
> <Name>
CHEMBL392500

> <IC50 nM>
21

> <Molecule_ChEMBL_ID>
CHEMBL392500

> <Smiles>
COc1ccc(F)cc1C(C)(C)CC(O)(Cc1ccc(C#N)c2ccccc12)C(F)(F)F

$$$$
CHEMBL4475716
  SciTegic08162514323D

 52 56  0  0  1  0            999 V2000
   -6.4980    4.1470    1.1270 F   0  0
   -5.5690    3.4140    0.5160 C   0  0
   -4.2460    3.8830    0.4320 C   0  0
   -5.9100    2.1740   -0.0490 C   0  0
   -3.2640    3.1120   -0.2150 C   0  0
   -4.9300    1.4010   -0.6950 C   0  0
   -3.6040    1.8670   -0.7790 C   0  0
   -2.6560    1.1210   -1.4040 N   0  0
   -2.8280    0.4960   -2.6000 N   0  0
   -1.4010    0.8870   -0.9420 C   0  0
   -1.7290   -0.1950   -3.0040 C   0  0
   -0.8810    0.0690   -1.9320 C   0  0
   -0.6700    1.3170    0.2640 C   0  0
    0.5310   -0.4740   -1.7480 C   0  0
    0.6540    1.0650    0.3360 C   0  0
    1.4280    0.4340   -0.8320 C   0  0  1  0  0  0
    2.5570   -0.4330   -0.2680 C   0  0
    1.9800    1.6210   -1.6660 C   0  0
    2.2500   -1.4320    0.8080 C   0  0
    3.8340   -0.3460   -0.7050 C   0  0
    3.1250    1.2030   -2.5920 C   0  0
    0.9140   -1.7600    1.1050 C   0  0
    3.2970   -2.0430    1.5210 C   0  0
    4.2810    0.6350   -1.7660 C   0  0
    0.6270   -2.6950    2.1150 C   0  0
    3.0060   -2.9780    2.5310 C   0  0
    1.6720   -3.3070    2.8300 C   0  0
    1.4020   -4.1850    3.7750 O   0  0
    0.0390   -4.4410    4.0760 C   0  0
   -3.9810    4.8380    0.8630 H   0  0
   -6.9260    1.8090    0.0120 H   0  0
   -2.2520    3.4900   -0.2680 H   0  0
   -5.2130    0.4470   -1.1230 H   0  0
   -1.6000   -0.7750   -3.9080 H   0  0
   -1.1800    1.8240    1.0700 H   0  0
    0.9920   -0.6440   -2.7210 H   0  0
    0.4120   -1.4650   -1.3030 H   0  0
    1.1800    1.3240    1.2440 H   0  0
    2.3590    2.4060   -1.0080 H   0  0
    1.1850    2.0860   -2.2500 H   0  0
    4.5900   -0.9980   -0.2890 H   0  0
    2.7810    0.4610   -3.3110 H   0  0
    3.4710    2.0570   -3.1760 H   0  0
    0.1030   -1.2950    0.5620 H   0  0
    4.3240   -1.7990    1.3010 H   0  0
    5.0060    0.1540   -2.4220 H   0  0
    4.8070    1.4530   -1.2740 H   0  0
   -0.3990   -2.9430    2.3400 H   0  0
    3.8120   -3.4450    3.0760 H   0  0
   -0.0020   -5.2250    4.8340 H   0  0
   -0.4380   -3.4960    4.3340 H   0  0
   -0.4430   -4.8220    3.1780 H   0  0
  1  2  1  0
  2  3  2  0
  2  4  1  0
  3  5  1  0
  4  6  2  0
  5  7  2  0
  7  8  1  0
  8  9  1  0
  8 10  1  0
  9 11  2  0
 10 12  2  0
 10 13  1  0
 12 14  1  0
 13 15  2  0
 16 14  1  0
 16 17  1  0
 16 18  1  0
 17 19  1  0
 17 20  2  0
 18 21  1  0
 19 22  2  0
 19 23  1  0
 20 24  1  0
 22 25  1  0
 23 26  2  0
 25 27  2  0
 27 28  1  0
 28 29  1  0
  6  7  1  0
 11 12  1  0
 15 16  1  0
 21 24  1  0
 26 27  1  0
  3 30  1  0
  4 31  1  0
  5 32  1  0
  6 33  1  0
 11 34  1  0
 13 35  1  0
 14 36  1  0
 14 37  1  0
 15 38  1  0
 18 39  1  0
 18 40  1  0
 20 41  1  0
 21 42  1  0
 21 43  1  0
 22 44  1  0
 23 45  1  0
 24 46  1  0
 24 47  1  0
 25 48  1  0
 26 49  1  0
 29 50  1  0
 29 51  1  0
 29 52  1  0
M  END
> <Name>
CHEMBL4475716

> <IC50 nM>
135

> <Molecule_ChEMBL_ID>
CHEMBL4475716

> <Smiles>
COc1ccc(C2=CCCC[C@]23C=Cc2c(cnn2-c2ccc(F)cc2)C3)cc1

$$$$
CHEMBL228655
  SciTegic08162514323D

 58 60  0  0  1  0            999 V2000
   -1.8030    2.0450    4.6270 O   0  0
   -1.0930    3.0190    4.5370 C   0  0
   -0.7060    3.5500    3.3810 O   0  0
   -0.5820    3.7210    5.7670 C   0  0
   -0.7950    2.8260    2.2840 C   0  0
   -1.1890    3.4210    1.0700 C   0  0
   -0.4960    1.4520    2.3240 C   0  0
   -1.4720    4.7070    1.0230 O   0  0
   -1.2820    2.6390   -0.0950 C   0  0
   -0.5890    0.6730    1.1590 C   0  0
   -0.6410    5.5990    1.7510 C   0  0
   -0.9820    1.2670   -0.0530 C   0  0
   -1.0820    0.4350   -1.3030 C   0  0  1  0  0  0
   -1.3950   -1.0650   -1.0590 C   0  0  2  0  0  0
   -2.4570    0.5100   -2.0150 C   0  0  2  0  0  0
   -0.2080   -1.9780   -1.1710 C   0  0
   -2.2730   -0.9940   -2.3340 C   0  0  2  0  0  0
   -2.4900    1.4180   -3.2400 C   0  0
    1.0810   -1.4940   -0.8880 C   0  0
   -0.3840   -3.3170   -1.5590 C   0  0
   -3.5550   -1.8160   -2.2700 C   0  0
    2.1950   -2.3450   -0.9920 C   0  0
    0.7280   -4.1690   -1.6630 C   0  0
    3.4010   -1.8840   -0.7250 O   0  0
    2.0190   -3.6870   -1.3810 C   0  0
    3.5420   -0.4950   -0.4670 C   0  0
    3.0570   -4.4920   -1.4810 O   0  0
    3.9110   -4.5720   -0.4640 C   0  0
    3.6930   -4.1210    0.6360 O   0  0
    5.2050   -5.2770   -0.7690 C   0  0
   -0.9150    3.2640    6.6990 H   0  0
   -0.9150    4.7580    5.7670 H   0  0
    0.5080    3.7210    5.7670 H   0  0
   -0.1940    0.9930    3.2540 H   0  0
   -1.5840    3.0990   -1.0250 H   0  0
   -0.3570   -0.3820    1.1970 H   0  0
   -0.5540    6.6140    1.3620 H   0  0
    0.3610    5.1730    1.7960 H   0  0
   -1.0210    5.6650    2.7710 H   0  0
   -0.2400    0.6140   -1.9750 H   0  0
   -1.9710   -1.2610   -0.1510 H   0  0
   -3.2970    0.7060   -1.3460 H   0  0
   -1.7280   -1.1700   -3.2630 H   0  0
   -1.6320    1.2530   -3.8910 H   0  0
   -2.4870    2.4660   -2.9420 H   0  0
   -3.3920    1.2410   -3.8260 H   0  0
    1.2190   -0.4650   -0.5900 H   0  0
   -1.3730   -3.6950   -1.7780 H   0  0
   -4.0850   -1.6710   -1.3280 H   0  0
   -3.3360   -2.8790   -2.3680 H   0  0
   -4.2320   -1.5390   -3.0790 H   0  0
    0.5900   -5.1980   -1.9620 H   0  0
    4.5920   -0.2920   -0.2580 H   0  0
    3.1010    0.0530   -1.2990 H   0  0
    2.9720   -0.2550    0.4310 H   0  0
    5.8850   -5.3280    0.0820 H   0  0
    5.7240   -4.7660   -1.5800 H   0  0
    5.0030   -6.2980   -1.0950 H   0  0
  1  2  2  0
  2  3  1  0
  2  4  1  0
  3  5  1  0
  5  6  2  0
  5  7  1  0
  6  8  1  0
  6  9  1  0
  7 10  2  0
  8 11  1  0
  9 12  2  0
 13 12  1  0
 13 14  1  0
 13 15  1  0
 14 16  1  0
 14 17  1  0
 15 18  1  0
 16 19  2  0
 16 20  1  0
 17 21  1  0
 19 22  1  0
 20 23  2  0
 22 24  1  0
 22 25  2  0
 24 26  1  0
 25 27  1  0
 27 28  1  0
 28 29  2  0
 28 30  1  0
 10 12  1  0
 15 17  1  0
 23 25  1  0
  4 31  1  0
  4 32  1  0
  4 33  1  0
  7 34  1  0
  9 35  1  0
 10 36  1  0
 11 37  1  0
 11 38  1  0
 11 39  1  0
 13 40  1  0
 14 41  1  0
 15 42  1  0
 17 43  1  0
 18 44  1  0
 18 45  1  0
 18 46  1  0
 19 47  1  0
 20 48  1  0
 21 49  1  0
 21 50  1  0
 21 51  1  0
 23 52  1  0
 26 53  1  0
 26 54  1  0
 26 55  1  0
 30 56  1  0
 30 57  1  0
 30 58  1  0
M  END
> <Name>
CHEMBL228655

> <IC50 nM>
34000

> <Molecule_ChEMBL_ID>
CHEMBL228655

> <Smiles>
COc1cc([C@@H]2[C@@H](C)[C@H](C)[C@H]2c2ccc(OC(C)=O)c(OC)c2)ccc1OC(C)=O

$$$$
CHEMBL3970640
  SciTegic08162514323D

 62 65  0  0  1  0            999 V2000
   -0.7140    1.2550   -4.7880 S   0  0
   -1.9860    1.1250   -5.4780 O   0  0
   -0.2480    2.6280   -4.7000 O   0  0
   -1.0020    0.7410   -3.1510 N   0  0
    0.5130    0.2820   -5.6520 C   0  0  3  0  0  0
    0.1440    0.5950   -2.2700 C   0  0  2  0  0  0
    0.1100   -1.1920   -5.6730 C   0  0
    0.7570    0.8480   -7.0510 C   0  0
   -0.3080    0.1970   -0.8650 C   0  0  2  0  0  0
    0.9920    1.8670   -2.2800 C   0  0
    1.2500   -2.1090   -6.1170 C   0  0
    0.8210    0.1350   -0.0050 O   0  0
   -1.0040   -1.1160   -0.8650 C   0  0
    0.6200    0.3050    1.3100 C   0  0
   -2.4090   -1.1680   -0.8650 C   0  0
   -0.2570   -2.3080   -0.8650 C   0  0
   -0.6940    0.2160    1.8420 C   0  0
    1.7230    0.5730    2.1650 C   0  0
   -3.0670   -2.4100   -0.8650 C   0  0
   -0.9160   -3.5500   -0.8650 C   0  0
   -0.8930    0.3980    3.2350 C   0  0
    1.5190    0.7540    3.5550 C   0  0
   -2.3200   -3.6010   -0.8650 C   0  0
    0.1960    0.6590    4.0460 C   0  0
   -2.1430    0.3260    3.8250 C   0  0
   -0.3770    0.7680    5.2710 N   0  0
   -1.7320    0.5720    5.1190 N   0  0
    0.2550    1.0250    6.4470 C   0  0
   -0.1190    0.3340    7.6150 C   0  0
    1.2860    1.9830    6.5000 C   0  0
    0.5350    0.6000    8.8300 C   0  0
    1.9390    2.2470    7.7160 C   0  0
    1.5640    1.5560    8.8820 C   0  0
    2.1830    1.8080   10.0330 F   0  0
   -1.5190   -0.1500   -3.1570 H   0  0
    1.3870    0.4340   -5.0180 H   0  0
    0.6770   -0.2260   -2.7500 H   0  0
   -0.2760   -1.5000   -4.7010 H   0  0
   -0.7700   -1.3420   -6.2980 H   0  0
    1.5870    0.3500   -7.5520 H   0  0
    0.9870    1.9120   -7.0020 H   0  0
   -0.1290    0.7270   -7.6750 H   0  0
   -0.9820    0.9660   -0.4880 H   0  0
    1.4820    2.0220   -3.2410 H   0  0
    1.7670    1.8200   -1.5140 H   0  0
    0.3750    2.7430   -2.0760 H   0  0
    0.9520   -3.1560   -6.0490 H   0  0
    1.5440   -1.8890   -7.1430 H   0  0
    2.1250   -1.9710   -5.4820 H   0  0
   -2.9890   -0.2560   -0.8650 H   0  0
    0.8220   -2.2760   -0.8650 H   0  0
   -1.5260    0.0120    1.1830 H   0  0
    2.7200    0.6390    1.7570 H   0  0
   -4.1460   -2.4490   -0.8650 H   0  0
   -0.3420   -4.4650   -0.8650 H   0  0
    2.3490    0.9590    4.2160 H   0  0
   -2.8260   -4.5560   -0.8650 H   0  0
   -3.1420    0.1430    3.4520 H   0  0
   -0.9080   -0.4060    7.5960 H   0  0
    1.5890    2.5240    5.6140 H   0  0
    0.2450    0.0670    9.7240 H   0  0
    2.7290    2.9830    7.7510 H   0  0
  1  2  2  0
  1  3  2  0
  1  4  1  0
  1  5  1  0
  4  6  1  0
  5  7  1  0
  5  8  1  0
  6  9  1  0
  6 10  1  0
  7 11  1  0
  9 12  1  0
  9 13  1  0
 12 14  1  0
 13 15  2  0
 13 16  1  0
 14 17  2  0
 14 18  1  0
 15 19  1  0
 16 20  2  0
 17 21  1  0
 18 22  2  0
 19 23  2  0
 21 24  2  0
 21 25  1  0
 24 26  1  0
 25 27  2  0
 26 28  1  0
 28 29  2  0
 28 30  1  0
 29 31  1  0
 30 32  2  0
 31 33  2  0
 33 34  1  0
 20 23  1  0
 22 24  1  0
 26 27  1  0
 32 33  1  0
  4 35  1  0
  5 36  1  0
  6 37  1  0
  7 38  1  0
  7 39  1  0
  8 40  1  0
  8 41  1  0
  8 42  1  0
  9 43  1  0
 10 44  1  0
 10 45  1  0
 10 46  1  0
 11 47  1  0
 11 48  1  0
 11 49  1  0
 15 50  1  0
 16 51  1  0
 17 52  1  0
 18 53  1  0
 19 54  1  0
 20 55  1  0
 22 56  1  0
 23 57  1  0
 25 58  1  0
 29 59  1  0
 30 60  1  0
 31 61  1  0
 32 62  1  0
M  END
> <Name>
CHEMBL3970640

> <IC50 nM>
6.6

> <Molecule_ChEMBL_ID>
CHEMBL3970640

> <Smiles>
CCC(C)S(=O)(=O)N[C@@H](C)[C@H](Oc1ccc2c(cnn2-c2ccc(F)cc2)c1)c1ccccc1

$$$$
CHEMBL336736
  SciTegic08162514323D

 54 58  0  0  0  0            999 V2000
    3.6410   -5.9490    0.8120 F   0  0
    3.2620   -4.7270    0.4490 C   0  0
    1.9790   -4.2500    0.8050 C   0  0
    4.1450   -3.9080   -0.2910 C   0  0
    1.5640   -2.9410    0.4240 C   0  0
    3.7520   -2.6070   -0.6700 C   0  0
    2.4770   -2.1110   -0.3070 C   0  0
    0.2110   -2.4080    0.7440 C   0  0
    2.1560   -0.8480   -0.6580 O   0  0
   -0.1500   -1.1290    0.2320 C   0  0
   -0.7250   -3.1230    1.5410 C   0  0
    0.9860   -0.3010   -0.2970 C   0  0
   -1.5250   -0.7190    0.2670 C   0  0
   -2.0060   -2.5900    1.7870 C   0  0
    0.9120    1.0510   -0.3670 C   0  0
   -2.4180   -1.3870    1.1600 C   0  0
   -2.0940    0.3520   -0.6250 C   0  0
    2.0160    1.8850   -0.9400 C   0  0
   -3.6600   -0.8910    1.4020 N   0  0
   -3.2990    0.8830   -0.3300 C   0  0
   -1.4080    0.8280   -1.8830 C   0  0
    2.3440    3.1350   -0.3730 C   0  0
    2.7320    1.4140   -2.0550 C   0  0
   -4.1090    0.4280    0.8690 C   0  0
    3.3830    3.9020   -0.9240 C   0  0
    1.6020    3.6540    0.8080 C   0  0
    3.7700    2.1860   -2.6040 C   0  0
   -5.5760    0.3130    0.4470 C   0  0
   -3.9770    1.4770    1.9750 C   0  0
    4.0960    3.4300   -2.0390 C   0  0
    1.3380   -4.9120    1.3650 H   0  0
    5.1210   -4.2750   -0.5700 H   0  0
    4.4300   -1.9860   -1.2350 H   0  0
   -0.4920   -4.0780    1.9840 H   0  0
   -2.6700   -3.1210    2.4550 H   0  0
    0.0530    1.5900    0.0020 H   0  0
   -4.3030   -1.4080    1.9710 H   0  0
   -3.7070    1.6540   -0.9690 H   0  0
   -2.1070    0.7990   -2.7190 H   0  0
   -1.0080    1.8300   -1.7290 H   0  0
   -0.5740    0.1680   -2.1230 H   0  0
    2.4880    0.4590   -2.4980 H   0  0
    3.6410    4.8610   -0.4960 H   0  0
    1.5550    2.9630    1.6500 H   0  0
    0.5780    3.8950    0.5170 H   0  0
    2.0720    4.5720    1.1580 H   0  0
    4.3180    1.8200   -3.4610 H   0  0
   -5.7150   -0.4260   -0.3440 H   0  0
   -5.9450    1.2700    0.0780 H   0  0
   -6.1990    0.0180    1.2910 H   0  0
   -2.9450    1.5900    2.3070 H   0  0
   -4.5780    1.2010    2.8420 H   0  0
   -4.3220    2.4490    1.6250 H   0  0
    4.8950    4.0220   -2.4610 H   0  0
  1  2  1  0
  2  3  2  0
  2  4  1  0
  3  5  1  0
  4  6  2  0
  5  7  2  0
  5  8  1  0
  7  9  1  0
  8 10  2  0
  8 11  1  0
  9 12  1  0
 10 13  1  0
 11 14  2  0
 12 15  2  0
 13 16  2  0
 13 17  1  0
 15 18  1  0
 16 19  1  0
 17 20  2  0
 17 21  1  0
 18 22  2  0
 18 23  1  0
 19 24  1  0
 22 25  1  0
 22 26  1  0
 23 27  2  0
 24 28  1  0
 24 29  1  0
 25 30  2  0
  6  7  1  0
 10 12  1  0
 14 16  1  0
 20 24  1  0
 27 30  1  0
  3 31  1  0
  4 32  1  0
  6 33  1  0
 11 34  1  0
 14 35  1  0
 15 36  1  0
 19 37  1  0
 20 38  1  0
 21 39  1  0
 21 40  1  0
 21 41  1  0
 23 42  1  0
 25 43  1  0
 26 44  1  0
 26 45  1  0
 26 46  1  0
 27 47  1  0
 28 48  1  0
 28 49  1  0
 28 50  1  0
 29 51  1  0
 29 52  1  0
 29 53  1  0
 30 54  1  0
M  END
> <Name>
CHEMBL336736

> <IC50 nM>
650

> <Molecule_ChEMBL_ID>
CHEMBL336736

> <Smiles>
CC1=CC(C)(C)Nc2ccc3c(c21)/C(=C/c1ccccc1C)Oc1ccc(F)cc1-3

$$$$
CHEMBL512127
  SciTegic08162514323D

 64 66  0  0  1  0            999 V2000
   -5.3420    1.0630   -2.0250 S   0  0
   -5.1600    1.8460   -0.8140 O   0  0
   -6.0650   -0.1780   -1.8030 O   0  0
   -3.7810    0.6740   -2.6600 C   0  0
   -6.2350    2.0470   -3.2210 C   0  0
   -3.0390   -0.3960   -2.1250 C   0  0
   -3.2580    1.4380   -3.7170 C   0  0
   -3.5900   -1.2110   -1.0020 C   0  0
   -1.7720   -0.6990   -2.6520 C   0  0
   -1.9900    1.1330   -4.2420 C   0  0
   -4.0240   -2.3240   -1.1950 O   0  0
   -3.5980   -0.6780    0.2560 N   0  0
   -1.2480    0.0650   -3.7110 C   0  0
   -2.9060    0.5960    0.5020 C   0  0
   -4.2790   -1.3460    1.3730 C   0  0
   -1.5330    0.3630    1.1350 C   0  0  2  0  0  0
   -5.7790   -1.4690    1.1060 C   0  0
   -1.7250   -0.2340    2.3970 O   0  0
   -0.9100    1.7420    1.3460 C   0  0
   -0.6480   -0.5620    0.2970 C   0  0
   -0.6110    2.3010    0.1310 F   0  0
    0.2360    1.6170    2.0860 F   0  0
   -1.7990    2.5470    2.0140 F   0  0
    0.6090   -0.8590    0.9940 N   0  0
    1.7810   -0.3460    0.5140 C   0  0
    1.7810    0.3500   -0.4740 O   0  0
    3.0310   -0.6390    1.2030 C   0  0
    4.3220   -0.1820    0.8380 C   0  0
    3.1680   -1.4340    2.3600 C   0  0
    5.1720   -0.7010    1.7620 N   0  0
    4.6430    0.6820   -0.3140 N   0  0
    4.4820   -1.4300    2.6430 N   0  0
    6.5180   -0.5230    1.8050 C   0  0
    7.0630    0.7740    1.7250 C   0  0
    7.3730   -1.6350    1.9300 C   0  0
    8.4550    0.9550    1.7700 C   0  0
    8.7660   -1.4510    1.9750 C   0  0
    9.3070   -0.1560    1.8950 C   0  0
   10.6270    0.0180    1.9380 F   0  0
   -7.2680    2.2620   -2.9430 H   0  0
   -6.2500    1.5270   -4.1800 H   0  0
   -5.7230    2.9980   -3.3650 H   0  0
   -3.8260    2.2600   -4.1270 H   0  0
   -1.1930   -1.5180   -2.2520 H   0  0
   -1.5880    1.7210   -5.0550 H   0  0
   -0.2730   -0.1700   -4.1130 H   0  0
   -3.5250    1.2210    1.1470 H   0  0
   -2.8110    1.1410   -0.4370 H   0  0
   -3.8340   -2.3300    1.5290 H   0  0
   -4.0960   -0.7870    2.2910 H   0  0
   -6.2850   -1.9300    1.9530 H   0  0
   -6.2190   -0.4900    0.9180 H   0  0
   -5.9650   -2.0900    0.2290 H   0  0
   -1.7850   -1.1910    2.2540 H   0  0
   -0.4260   -0.1090   -0.6700 H   0  0
   -1.1660   -1.4960    0.0760 H   0  0
    0.6110   -1.4340    1.8130 H   0  0
    2.4080   -1.9530    2.9300 H   0  0
    5.5820    0.9380   -0.5390 H   0  0
    3.9080    1.0310   -0.8980 H   0  0
    6.4240    1.6390    1.6290 H   0  0
    6.9750   -2.6390    1.9920 H   0  0
    8.8670    1.9510    1.7090 H   0  0
    9.4160   -2.3090    2.0700 H   0  0
  1  2  2  0
  1  3  2  0
  1  4  1  0
  1  5  1  0
  4  6  2  0
  4  7  1  0
  6  8  1  0
  6  9  1  0
  7 10  2  0
  8 11  2  0
  8 12  1  0
  9 13  2  0
 12 14  1  0
 12 15  1  0
 14 16  1  0
 15 17  1  0
 16 18  1  0
 16 19  1  0
 16 20  1  0
 19 21  1  0
 19 22  1  0
 19 23  1  0
 20 24  1  0
 24 25  1  0
 25 26  2  0
 25 27  1  0
 27 28  2  0
 27 29  1  0
 28 30  1  0
 28 31  1  0
 29 32  2  0
 30 33  1  0
 33 34  2  0
 33 35  1  0
 34 36  1  0
 35 37  2  0
 36 38  2  0
 38 39  1  0
 10 13  1  0
 30 32  1  0
 37 38  1  0
  5 40  1  0
  5 41  1  0
  5 42  1  0
  7 43  1  0
  9 44  1  0
 10 45  1  0
 13 46  1  0
 14 47  1  0
 14 48  1  0
 15 49  1  0
 15 50  1  0
 17 51  1  0
 17 52  1  0
 17 53  1  0
 18 54  1  0
 20 55  1  0
 20 56  1  0
 24 57  1  0
 29 58  1  0
 31 59  1  0
 31 60  1  0
 34 61  1  0
 35 62  1  0
 36 63  1  0
 37 64  1  0
M  END
> <Name>
CHEMBL512127

> <IC50 nM>
63.1

> <Molecule_ChEMBL_ID>
CHEMBL512127

> <Smiles>
CCN(CC(O)(CNC(=O)c1cnn(-c2ccc(F)cc2)c1N)C(F)(F)F)C(=O)c1ccccc1S(C)(=O)=O

$$$$
CHEMBL4756197
  SciTegic08162514323D

 76 80  0  0  1  0            999 V2000
   -9.3200   -1.8240    4.0230 F   0  0
   -7.9710   -1.6020    4.1250 C   0  0
   -7.6780   -1.1450    5.3850 F   0  0
   -7.2970   -2.7740    3.8950 F   0  0
   -7.6040   -0.5700    3.0920 C   0  0
   -8.4420   -0.0980    2.3590 O   0  0
   -6.3010   -0.1760    2.9940 N   0  0
   -5.9240    0.8300    1.9900 C   0  0  2  0  0  0
   -4.4490    0.7010    1.6110 C   0  0  2  0  0  0
   -6.2910    2.2360    2.4590 C   0  0
   -4.0780    1.7850    0.7710 O   0  0
   -4.1740   -0.5820    0.9120 C   0  0
   -2.8610    1.7910    0.2690 C   0  0
   -3.3810   -1.5650    1.5310 C   0  0
   -4.7050   -0.8150   -0.3690 C   0  0
   -2.6150    2.3810   -0.9840 C   0  0
   -1.7990    1.2090    0.9820 C   0  0
   -3.1190   -2.7770    0.8690 C   0  0
   -4.4430   -2.0270   -1.0290 C   0  0
   -1.3180    2.3870   -1.5220 C   0  0
   -0.4980    1.2150    0.4490 C   0  0
   -3.6520   -3.0100   -0.4100 C   0  0
   -0.2580    1.8050   -0.8050 C   0  0
   -3.3730   -4.3070   -1.1170 C   0  0
    1.1230    1.8110   -1.3750 C   0  0
   -3.0820   -4.3010   -2.6040 C   0  0
   -1.9730   -4.6000   -1.6190 C   0  0
    1.3500    2.3120   -2.4510 O   0  0
    2.0510    1.2340   -0.6170 O   0  0
    3.3650    1.4430   -1.1170 C   0  0  2  0  0  0
    4.3360    0.4750   -0.4180 C   0  0
    3.7600    2.9120   -0.9040 C   0  0
    5.7440    0.7810   -0.7660 N   0  0
    5.2070    3.1460   -1.3630 C   0  0
    6.6040   -0.2090   -1.1620 C   0  0
    6.1970    2.1910   -0.6720 C   0  0
    6.2250   -1.3540   -1.2310 O   0  0
    8.0260    0.1620   -1.5120 C   0  0  1  0  0  0
    8.8400    0.5660   -0.2730 C   0  0
    8.8540   -1.0410   -1.9650 C   0  0
    9.3630   -0.6290    0.3010 O   0  0
    9.4490   -1.5240   -0.6760 C   0  0
    9.9380   -2.6230   -0.5630 O   0  0
   -5.6090   -0.5680    3.6000 H   0  0
   -6.5590    0.7150    1.1110 H   0  0
   -3.8520    0.7540    2.5210 H   0  0
   -7.3590    2.3070    2.6720 H   0  0
   -5.7320    2.5020    3.3570 H   0  0
   -6.0570    2.9750    1.6910 H   0  0
   -2.9690   -1.3930    2.5160 H   0  0
   -5.3150   -0.0650   -0.8520 H   0  0
   -3.4280    2.8300   -1.5370 H   0  0
   -1.9800    0.7540    1.9470 H   0  0
   -2.5100   -3.5290    1.3500 H   0  0
   -4.8560   -2.2010   -2.0140 H   0  0
   -1.1430    2.8440   -2.4860 H   0  0
    0.3090    0.7640    1.0060 H   0  0
   -3.9380   -5.1600   -0.7420 H   0  0
   -3.0530   -3.3440   -3.1270 H   0  0
   -3.4690   -5.1310   -3.1950 H   0  0
   -1.6210   -5.6290   -1.5530 H   0  0
   -1.2010   -3.8440   -1.4790 H   0  0
    3.3440    1.2300   -2.1860 H   0  0
    4.2270    0.5550    0.6640 H   0  0
    4.0940   -0.5570   -0.6860 H   0  0
    3.0820    3.5680   -1.4510 H   0  0
    3.6660    3.1700    0.1500 H   0  0
    5.4940    4.1800   -1.1700 H   0  0
    5.2660    3.0100   -2.4430 H   0  0
    6.2850    2.4510    0.3830 H   0  0
    7.1920    2.3030   -1.1090 H   0  0
    8.0140    0.9450   -2.2560 H   0  0
    8.2680    1.1070    0.4690 H   0  0
    9.6760    1.1890   -0.5630 H   0  0
    8.2640   -1.8110   -2.4450 H   0  0
    9.6450   -0.7440   -2.6370 H   0  0
  1  2  1  0
  2  3  1  0
  2  4  1  0
  2  5  1  0
  5  6  2  0
  5  7  1  0
  7  8  1  0
  8  9  1  0
  8 10  1  0
  9 11  1  0
  9 12  1  0
 11 13  1  0
 12 14  2  0
 12 15  1  0
 13 16  2  0
 13 17  1  0
 14 18  1  0
 15 19  2  0
 16 20  1  0
 17 21  2  0
 18 22  2  0
 20 23  2  0
 22 24  1  0
 23 25  1  0
 24 26  1  0
 24 27  1  0
 25 28  2  0
 25 29  1  0
 30 29  1  0
 30 31  1  0
 30 32  1  0
 31 33  1  0
 32 34  1  0
 33 35  1  0
 33 36  1  0
 35 37  2  0
 38 35  1  0
 38 39  1  0
 38 40  1  0
 39 41  1  0
 40 42  1  0
 42 43  2  0
 19 22  1  0
 21 23  1  0
 26 27  1  0
 34 36  1  0
 41 42  1  0
  7 44  1  0
  8 45  1  0
  9 46  1  0
 10 47  1  0
 10 48  1  0
 10 49  1  0
 14 50  1  0
 15 51  1  0
 16 52  1  0
 17 53  1  0
 18 54  1  0
 19 55  1  0
 20 56  1  0
 21 57  1  0
 24 58  1  0
 26 59  1  0
 26 60  1  0
 27 61  1  0
 27 62  1  0
 30 63  1  0
 31 64  1  0
 31 65  1  0
 32 66  1  0
 32 67  1  0
 34 68  1  0
 34 69  1  0
 36 70  1  0
 36 71  1  0
 38 72  1  0
 39 73  1  0
 39 74  1  0
 40 75  1  0
 40 76  1  0
M  END
> <Name>
CHEMBL4756197

> <IC50 nM>
1

> <Molecule_ChEMBL_ID>
CHEMBL4756197

> <Smiles>
C[C@H](NC(=O)C(F)(F)F)[C@H](Oc1ccc(C(=O)O[C@H]2CCCN(C(=O)[C@H]3COC(=O)C3)C2)cc1)c1ccc(C2CC2)cc1

$$$$
CHEMBL4797614
  SciTegic08162514323D

 84 89  0  0  1  0            999 V2000
    4.3970   10.5430    4.0820 O   0  0
    3.8030   10.3150    3.0550 C   0  0
    3.4400   11.2330    2.1700 O   0  0
    3.4160    8.9240    2.6520 C   0  0
    2.6520   10.5740    1.1820 C   0  0
    3.0780    9.1000    1.1740 C   0  0  2  0  0  0
    2.0310    8.1490    0.6480 C   0  0
    0.9710    8.5570    0.2360 O   0  0
    2.3030    6.8070    0.6480 N   0  0
    1.2720    5.8300    0.2210 C   0  0
    3.6330    6.3030    1.0700 C   0  0
    1.5940    4.4200    0.7460 C   0  0  1  0  0  0
    4.0350    5.0590    0.2580 C   0  0
    0.6040    3.5060    0.2930 O   0  0
    2.9860    3.9300    0.3070 C   0  0
    0.6090    2.3710    0.9860 C   0  0
    1.3400    2.1600    1.9260 O   0  0
   -0.3690    1.3420    0.5270 C   0  0
   -0.4180    0.0860    1.1580 C   0  0
   -1.2440    1.6250   -0.5370 C   0  0
   -1.3400   -0.8830    0.7250 C   0  0
   -2.1640    0.6560   -0.9690 C   0  0
   -2.2150   -0.6020   -0.3400 C   0  0
   -3.0780   -1.5100   -0.7460 O   0  0
   -2.7580   -2.8770   -0.5310 C   0  0  2  0  0  0
   -1.4260   -3.1720   -1.1190 C   0  0
   -3.8500   -3.7580   -1.1390 C   0  0  1  0  0  0
   -0.4590   -3.8630   -0.3670 C   0  0
   -1.1290   -2.7600   -2.4320 C   0  0
   -3.5370   -5.1840   -0.9590 N   0  0
   -5.2420   -3.4300   -0.6000 C   0  0
    0.8010   -4.1430   -0.9240 C   0  0
    0.1330   -3.0390   -2.9880 C   0  0
   -3.5000   -5.7070    0.3030 C   0  0
    1.0980   -3.7310   -2.2340 C   0  0
   -3.7210   -5.0060    1.2620 O   0  0
   -3.1780   -7.1700    0.4690 C   0  0  1  0  0  0
    2.4430   -4.0290   -2.8300 C   0  0
   -3.0980   -7.5100    1.8300 O   0  0
   -4.2520   -8.1310   -0.0410 C   0  0
    3.3260   -2.8870   -3.2910 C   0  0
    3.6970   -3.6760   -2.0550 C   0  0
   -3.1370   -8.9080    1.9690 C   0  0
   -4.1040   -9.3560    0.8730 C   0  0
    4.2250    8.2250    2.8090 H   0  0
    2.5610    8.6060    3.2320 H   0  0
    1.6130   10.6780    1.4610 H   0  0
    2.7930   11.0610    0.2270 H   0  0
    3.9810    8.9960    0.5860 H   0  0
    0.2930    6.1490    0.5840 H   0  0
    1.2250    5.8240   -0.8690 H   0  0
    3.5900    6.0610    2.1330 H   0  0
    4.3870    7.0840    0.9530 H   0  0
    1.5490    4.4340    1.8380 H   0  0
    5.0000    4.6820    0.6020 H   0  0
    4.1860    5.3560   -0.7790 H   0  0
    2.9240    3.4690   -0.6800 H   0  0
    3.3150    3.1410    0.9860 H   0  0
    0.2500   -0.1430    1.9770 H   0  0
   -1.2130    2.5880   -1.0270 H   0  0
   -1.3730   -1.8460    1.2110 H   0  0
   -2.8340    0.8790   -1.7870 H   0  0
   -2.7290   -3.0570    0.5430 H   0  0
   -3.9670   -3.5490   -2.2030 H   0  0
   -0.6820   -4.1820    0.6430 H   0  0
   -1.8650   -2.2310   -3.0160 H   0  0
   -3.3540   -5.7660   -1.7520 H   0  0
   -5.9790   -4.1370   -0.9790 H   0  0
   -5.2500   -3.4570    0.4900 H   0  0
   -5.5490   -2.4320   -0.9100 H   0  0
    1.5390   -4.6740   -0.3400 H   0  0
    0.3540   -2.7210   -3.9960 H   0  0
   -2.2250   -7.3910    0.0100 H   0  0
    2.4860   -4.9400   -3.4260 H   0  0
   -4.1170   -8.3750   -1.0840 H   0  0
   -5.2400   -7.7050    0.0760 H   0  0
    2.9710   -1.8650   -3.1540 H   0  0
    3.9240   -3.0430   -4.1900 H   0  0
    4.5430   -4.3610   -2.1290 H   0  0
    3.5920   -3.1860   -1.0880 H   0  0
   -3.4510   -9.1800    2.9670 H   0  0
   -2.1450   -9.2990    1.7930 H   0  0
   -5.0610   -9.6410    1.2850 H   0  0
   -3.7110  -10.2090    0.3380 H   0  0
  1  2  2  0
  2  3  1  0
  2  4  1  0
  3  5  1  0
  4  6  1  0
  6  7  1  0
  7  8  2  0
  7  9  1  0
  9 10  1  0
  9 11  1  0
 10 12  1  0
 11 13  1  0
 12 14  1  0
 12 15  1  0
 14 16  1  0
 16 17  2  0
 16 18  1  0
 18 19  2  0
 18 20  1  0
 19 21  1  0
 20 22  2  0
 21 23  2  0
 23 24  1  0
 25 24  1  0
 25 26  1  0
 25 27  1  0
 26 28  2  0
 26 29  1  0
 27 30  1  0
 27 31  1  0
 28 32  1  0
 29 33  2  0
 30 34  1  0
 32 35  2  0
 34 36  2  0
 37 34  1  0
 35 38  1  0
 37 39  1  0
 37 40  1  0
 38 41  1  0
 38 42  1  0
 39 43  1  0
 40 44  1  0
  5  6  1  0
 13 15  1  0
 22 23  1  0
 33 35  1  0
 41 42  1  0
 43 44  1  0
  4 45  1  0
  4 46  1  0
  5 47  1  0
  5 48  1  0
  6 49  1  0
 10 50  1  0
 10 51  1  0
 11 52  1  0
 11 53  1  0
 12 54  1  0
 13 55  1  0
 13 56  1  0
 15 57  1  0
 15 58  1  0
 19 59  1  0
 20 60  1  0
 21 61  1  0
 22 62  1  0
 25 63  1  0
 27 64  1  0
 28 65  1  0
 29 66  1  0
 30 67  1  0
 31 68  1  0
 31 69  1  0
 31 70  1  0
 32 71  1  0
 33 72  1  0
 37 73  1  0
 38 74  1  0
 40 75  1  0
 40 76  1  0
 41 77  1  0
 41 78  1  0
 42 79  1  0
 42 80  1  0
 43 81  1  0
 43 82  1  0
 44 83  1  0
 44 84  1  0
M  END
> <Name>
CHEMBL4797614

> <IC50 nM>
22

> <Molecule_ChEMBL_ID>
CHEMBL4797614

> <Smiles>
C[C@H](NC(=O)[C@@H]1CCCO1)[C@H](Oc1ccc(C(=O)O[C@H]2CCCN(C(=O)[C@H]3COC(=O)C3)C2)cc1)c1ccc(C2CC2)cc1

$$$$
CHEMBL420767
  SciTegic08162514323D

 47 50  0  0  1  0            999 V2000
   -4.8300    5.9360   -0.4340 F   0  0
   -4.3630    4.6910   -0.3530 C   0  0
   -5.0430    3.7310    0.4160 C   0  0
   -3.1890    4.3360   -1.0410 C   0  0
   -4.5510    2.4180    0.4980 C   0  0
   -2.6950    3.0230   -0.9590 C   0  0
   -3.3750    2.0610   -0.1870 C   0  0
   -2.8960    0.7910   -0.1070 N   0  0
   -3.6600   -0.3320   -0.2150 N   0  0
   -1.5990    0.4410    0.0860 C   0  0
   -2.9410   -1.4800   -0.0920 C   0  0
   -1.6740   -0.9410    0.1060 C   0  0
   -0.3570    1.2190    0.2520 C   0  0
   -0.3900   -1.7250    0.3590 C   0  0
    0.8220    0.5590    0.2320 C   0  0
    0.8930   -0.9450   -0.0820 C   0  0  1  0  0  0
    2.1150    1.2990    0.5060 C   0  0
    2.1470   -1.5450    0.6090 C   0  0  1  0  0  0
    1.0350   -1.0760   -1.6070 C   0  0
    3.3030    0.6270   -0.1930 C   0  0
    2.2540   -3.0640    0.4260 C   0  0  1  0  0  0
    3.4650   -0.8540    0.1950 C   0  0
    2.5780   -3.3220   -0.9220 O   0  0
    3.3340   -3.6900    1.3090 C   0  0
   -5.9470    4.0000    0.9430 H   0  0
   -2.6640    5.0700   -1.6330 H   0  0
   -5.0880    1.6930    1.0960 H   0  0
   -1.7890    2.7700   -1.4940 H   0  0
   -3.3010   -2.5000   -0.1370 H   0  0
   -0.3940    2.2910    0.3890 H   0  0
   -0.4450   -2.6950   -0.1390 H   0  0
   -0.3490   -1.9320    1.4300 H   0  0
    2.0350    2.3320    0.1700 H   0  0
    2.2870    1.3300    1.5840 H   0  0
    2.0240   -1.3710    1.6800 H   0  0
    2.0610   -0.9140   -1.9360 H   0  0
    0.4030   -0.3480   -2.1150 H   0  0
    0.7310   -2.0700   -1.9370 H   0  0
    4.2250    1.1700    0.0180 H   0  0
    3.1550    0.6970   -1.2710 H   0  0
    1.3010   -3.5470    0.6450 H   0  0
    4.1780   -0.9390    1.0160 H   0  0
    3.9180   -1.3790   -0.6460 H   0  0
    2.4630   -4.2750   -1.0640 H   0  0
    3.3520   -4.7740    1.1860 H   0  0
    4.3170   -3.2890    1.0570 H   0  0
    3.1450   -3.4770    2.3590 H   0  0
  1  2  1  0
  2  3  2  0
  2  4  1  0
  3  5  1  0
  4  6  2  0
  5  7  2  0
  7  8  1  0
  8  9  1  0
  8 10  1  0
  9 11  2  0
 10 12  2  0
 10 13  1  0
 12 14  1  0
 13 15  2  0
 14 16  1  0
 15 17  1  0
 16 18  1  0
 16 19  1  0
 17 20  1  0
 18 21  1  0
 18 22  1  0
 21 23  1  0
 21 24  1  0
  6  7  1  0
 11 12  1  0
 15 16  1  0
 20 22  1  0
  3 25  1  0
  4 26  1  0
  5 27  1  0
  6 28  1  0
 11 29  1  0
 13 30  1  0
 14 31  1  0
 14 32  1  0
 17 33  1  0
 17 34  1  0
 18 35  1  0
 19 36  1  0
 19 37  1  0
 19 38  1  0
 20 39  1  0
 20 40  1  0
 21 41  1  0
 22 42  1  0
 22 43  1  0
 23 44  1  0
 24 45  1  0
 24 46  1  0
 24 47  1  0
M  END
> <Name>
CHEMBL420767

> <IC50 nM>
8.8

> <Molecule_ChEMBL_ID>
CHEMBL420767

> <Smiles>
C[C@H](O)[C@H]1CCCC2=Cc3c(cnn3-c3ccc(F)cc3)C[C@@]21C

$$$$
CHEMBL237595
  SciTegic08162514323D

 48 49  0  0  1  0            999 V2000
    0.8160   -1.2170    2.4320 Cl  0  0
   -0.8890   -1.4160    2.3200 C   0  0
   -1.7480   -0.3110    2.1430 C   0  0
   -1.4300   -2.7130    2.4100 C   0  0
   -3.1370   -0.5120    2.0530 C   0  0
   -1.2170    1.0780    2.0490 C   0  0
   -2.8180   -2.9080    2.3200 C   0  0
   -3.6720   -1.8070    2.1430 C   0  0
   -1.1970    1.5760    0.6020 C   0  0  2  0  0  0
   -0.5900    2.8480    0.5820 O   0  0
   -2.5980    1.7050    0.0040 C   0  0
   -0.4080    0.6540   -0.3280 C   0  0
   -2.5370    2.4470   -1.1470 F   0  0
   -3.4240    2.3260    0.9040 F   0  0
   -3.0900    0.4570   -0.2810 F   0  0
    0.7850    1.3530   -0.9810 C   0  0
    1.2640    0.1270   -1.6740 C   0  0
    0.3630    2.4340   -1.9750 C   0  0
    1.8030    1.8570    0.0430 C   0  0
    2.1700   -0.7420   -1.0350 C   0  0
    0.8090   -0.1600   -2.9730 C   0  0
    2.6030   -0.4820    0.1840 O   0  0
    2.6150   -1.8970   -1.7030 C   0  0
    1.2560   -1.3150   -3.6370 C   0  0
    3.6390   -1.3010    0.7110 C   0  0
    2.1600   -2.1840   -3.0000 C   0  0
    0.8240   -1.5860   -4.8650 F   0  0
   -0.7870   -3.5720    2.5470 H   0  0
   -3.8010    0.3300    1.9160 H   0  0
   -1.8150    1.7400    2.6760 H   0  0
   -0.2170    1.1150    2.4820 H   0  0
   -3.2310   -3.9040    2.3890 H   0  0
   -4.7380   -1.9570    2.0720 H   0  0
   -1.1920    3.4590    1.0310 H   0  0
   -0.0880   -0.2440    0.1990 H   0  0
   -1.0630    0.2210   -1.0860 H   0  0
    1.0900    2.5510   -2.7790 H   0  0
    0.2600    3.3980   -1.4770 H   0  0
   -0.5980    2.1890   -2.4280 H   0  0
    2.8280    1.6580   -0.2720 H   0  0
    1.6500    1.3750    1.0080 H   0  0
    1.7030    2.9340    0.1870 H   0  0
    0.1130    0.5080   -3.4630 H   0  0
    3.3090   -2.5660   -1.2190 H   0  0
    3.9980   -0.8440    1.6310 H   0  0
    3.2580   -2.3200    0.7950 H   0  0
    4.4630   -1.3110   -0.0020 H   0  0
    2.5060   -3.0720   -3.5080 H   0  0
  1  2  1  0
  2  3  2  0
  2  4  1  0
  3  5  1  0
  3  6  1  0
  4  7  2  0
  5  8  2  0
  6  9  1  0
  9 10  1  0
  9 11  1  0
  9 12  1  0
 11 13  1  0
 11 14  1  0
 11 15  1  0
 12 16  1  0
 16 17  1  0
 16 18  1  0
 16 19  1  0
 17 20  2  0
 17 21  1  0
 20 22  1  0
 20 23  1  0
 21 24  2  0
 22 25  1  0
 23 26  2  0
 24 27  1  0
  7  8  1  0
 24 26  1  0
  4 28  1  0
  5 29  1  0
  6 30  1  0
  6 31  1  0
  7 32  1  0
  8 33  1  0
 10 34  1  0
 12 35  1  0
 12 36  1  0
 18 37  1  0
 18 38  1  0
 18 39  1  0
 19 40  1  0
 19 41  1  0
 19 42  1  0
 21 43  1  0
 23 44  1  0
 25 45  1  0
 25 46  1  0
 25 47  1  0
 26 48  1  0
M  END
> <Name>
CHEMBL237595

> <IC50 nM>
101

> <Molecule_ChEMBL_ID>
CHEMBL237595

> <Smiles>
COc1ccc(F)cc1C(C)(C)CC(O)(Cc1ccccc1Cl)C(F)(F)F

$$$$
CHEMBL236403
  SciTegic08162514323D

 45 46  0  0  1  0            999 V2000
    4.1190    2.7230   -2.6070 F   0  0
    3.3260    1.7090   -2.2680 C   0  0
    2.0650    1.9610   -1.7030 C   0  0
    3.7500    0.3850   -2.4770 C   0  0
    1.2270    0.8890   -1.3440 C   0  0
    2.9140   -0.6850   -2.1170 C   0  0
    1.6500   -0.4370   -1.5530 C   0  0
   -0.1070    1.1680   -0.7480 C   0  0
    0.8730   -1.4490   -1.2210 O   0  0
    0.3750    0.9920    0.6930 C   0  0
   -1.1390    0.1150   -1.1560 C   0  0
   -0.5700    2.5940   -1.0450 C   0  0
    1.3220   -2.7620   -1.5230 C   0  0
   -0.7730    0.9630    1.7010 C   0  0  1  0  0  0
   -1.6870    1.9810    1.3560 O   0  0
   -1.4710   -0.3490    1.7010 C   0  0
   -0.1890    1.2910    3.0760 C   0  0
   -2.8750   -0.4020    1.7010 C   0  0
   -0.7230   -1.5410    1.7010 C   0  0
    0.3360    2.5590    3.0590 F   0  0
    0.7990    0.3910    3.3790 F   0  0
   -1.1800    1.2210    4.0220 F   0  0
   -3.5330   -1.6440    1.7010 C   0  0
   -1.3830   -2.7830    1.7010 C   0  0
   -2.7870   -2.8340    1.7010 C   0  0
    1.7400    2.9790   -1.5430 H   0  0
    4.7190    0.1860   -2.9100 H   0  0
    3.2420   -1.7010   -2.2790 H   0  0
    1.0980    1.7640    0.9530 H   0  0
    0.9920    0.0980    0.7850 H   0  0
   -1.0310   -0.1720   -2.2030 H   0  0
   -2.1500    0.4940   -1.0180 H   0  0
   -1.0310   -0.7830   -0.5510 H   0  0
   -0.2890    2.9120   -2.0490 H   0  0
   -0.1310    3.2970   -0.3360 H   0  0
   -1.6540    2.6740   -0.9610 H   0  0
    1.4430   -2.8420   -2.6040 H   0  0
    2.2070   -2.9670   -0.9220 H   0  0
    0.5450   -3.4670   -1.2230 H   0  0
   -2.2250    1.6450    0.6210 H   0  0
   -3.4550    0.5100    1.7010 H   0  0
    0.3560   -1.5100    1.7010 H   0  0
   -4.6130   -1.6830    1.7010 H   0  0
   -0.8090   -3.6990    1.7010 H   0  0
   -3.2930   -3.7890    1.7010 H   0  0
  1  2  1  0
  2  3  2  0
  2  4  1  0
  3  5  1  0
  4  6  2  0
  5  7  2  0
  5  8  1  0
  7  9  1  0
  8 10  1  0
  8 11  1  0
  8 12  1  0
  9 13  1  0
 10 14  1  0
 14 15  1  0
 14 16  1  0
 14 17  1  0
 16 18  2  0
 16 19  1  0
 17 20  1  0
 17 21  1  0
 17 22  1  0
 18 23  1  0
 19 24  2  0
 23 25  2  0
  6  7  1  0
 24 25  1  0
  3 26  1  0
  4 27  1  0
  6 28  1  0
 10 29  1  0
 10 30  1  0
 11 31  1  0
 11 32  1  0
 11 33  1  0
 12 34  1  0
 12 35  1  0
 12 36  1  0
 13 37  1  0
 13 38  1  0
 13 39  1  0
 15 40  1  0
 18 41  1  0
 19 42  1  0
 23 43  1  0
 24 44  1  0
 25 45  1  0
M  END
> <Name>
CHEMBL236403

> <IC50 nM>
1600

> <Molecule_ChEMBL_ID>
CHEMBL236403

> <Smiles>
COc1ccc(F)cc1C(C)(C)CC(O)(c1ccccc1)C(F)(F)F

$$$$
CHEMBL72537
  SciTegic08162514323D

 53 55  0  0  0  0            999 V2000
   -4.3190    0.0800   -0.1520 S   0  0
   -3.5760   -0.4840    0.9610 O   0  0
   -5.0590    1.2790    0.2030 O   0  0
   -3.2440    0.4900   -1.2950 N   0  0
   -5.4650   -1.1470   -0.7640 C   0  0
   -2.0140   -0.1170   -1.3300 C   0  0
   -1.0120    0.1840   -0.3750 C   0  0
   -1.7560   -1.0570   -2.3480 C   0  0
    0.2440   -0.4690   -0.4510 C   0  0
   -1.2790    1.1860    0.7150 C   0  0
   -0.5100   -1.6970   -2.4160 C   0  0
    1.2420   -0.2090    0.4530 N   0  0
    0.4860   -1.4060   -1.4730 C   0  0
   -1.1020    0.9040    1.8770 O   0  0
   -1.7760    2.5490    0.3140 C   0  0
    1.2480   -0.8460    1.7790 C   0  0
    2.3300    0.7150    0.1040 C   0  0
    2.0370   -2.1060    1.7790 C   0  0
    1.8070    2.0450   -0.3050 C   0  0
    1.3790   -3.3480    1.7790 C   0  0
    3.4430   -2.0550    1.7790 C   0  0
    1.3120    2.2360   -1.6090 C   0  0
    1.8030    3.1130    0.6090 C   0  0
    2.1270   -4.5390    1.7790 C   0  0
    4.1890   -3.2460    1.7790 C   0  0
    0.8180    3.4940   -1.9960 C   0  0
    1.3080    4.3690    0.2230 C   0  0
    3.5310   -4.4880    1.7790 C   0  0
    0.8160    4.5610   -1.0800 C   0  0
   -3.4790    1.1880   -1.9750 H   0  0
   -6.2130   -1.4630   -0.0370 H   0  0
   -4.9140   -2.0330   -1.0820 H   0  0
   -5.9900   -0.7520   -1.6330 H   0  0
   -2.5080   -1.2970   -3.0860 H   0  0
   -0.3190   -2.4180   -3.1990 H   0  0
    1.4370   -1.9140   -1.5470 H   0  0
   -1.4280    3.2950    1.0310 H   0  0
   -1.4470    2.7810   -0.6970 H   0  0
   -2.8650    2.5640    0.3220 H   0  0
    0.2210   -1.0610    2.0780 H   0  0
    1.6680   -0.1520    2.5080 H   0  0
    2.9160    0.2890   -0.7110 H   0  0
    2.9900    0.8340    0.9630 H   0  0
    0.3010   -3.3950    1.7790 H   0  0
    3.9550   -1.1040    1.7790 H   0  0
    1.3120    1.4200   -2.3160 H   0  0
    2.1820    2.9730    1.6110 H   0  0
    1.6210   -5.4940    1.7790 H   0  0
    5.2680   -3.2070    1.7790 H   0  0
    0.4390    3.6410   -2.9960 H   0  0
    1.3070    5.1900    0.9260 H   0  0
    4.1030   -5.4040    1.7790 H   0  0
    0.4350    5.5270   -1.3770 H   0  0
  1  2  2  0
  1  3  2  0
  1  4  1  0
  1  5  1  0
  4  6  1  0
  6  7  2  0
  6  8  1  0
  7  9  1  0
  7 10  1  0
  8 11  2  0
  9 12  1  0
  9 13  2  0
 10 14  2  0
 10 15  1  0
 12 16  1  0
 12 17  1  0
 16 18  1  0
 17 19  1  0
 18 20  2  0
 18 21  1  0
 19 22  2  0
 19 23  1  0
 20 24  1  0
 21 25  2  0
 22 26  1  0
 23 27  2  0
 24 28  2  0
 26 29  2  0
 11 13  1  0
 25 28  1  0
 27 29  1  0
  4 30  1  0
  5 31  1  0
  5 32  1  0
  5 33  1  0
  8 34  1  0
 11 35  1  0
 13 36  1  0
 15 37  1  0
 15 38  1  0
 15 39  1  0
 16 40  1  0
 16 41  1  0
 17 42  1  0
 17 43  1  0
 20 44  1  0
 21 45  1  0
 22 46  1  0
 23 47  1  0
 24 48  1  0
 25 49  1  0
 26 50  1  0
 27 51  1  0
 28 52  1  0
 29 53  1  0
M  END
> <Name>
CHEMBL72537

> <IC50 nM>
580

> <Molecule_ChEMBL_ID>
CHEMBL72537

> <Smiles>
CC(=O)c1c(NS(C)(=O)=O)cccc1N(Cc1ccccc1)Cc1ccccc1

$$$$
CHEMBL233661
  SciTegic08162514323D

 40 42  0  0  1  0            999 V2000
    3.1250   -1.6430    6.1720 Br  0  0
    2.1720   -2.0120    4.5840 C   0  0
    0.7810   -1.7850    4.4980 C   0  0
    2.8650   -2.5200    3.4670 C   0  0
    0.0960   -1.3030    5.5330 F   0  0
    0.0960   -2.0700    3.3050 C   0  0
    2.1780   -2.8030    2.2750 C   0  0
    0.7930   -2.5800    2.1950 C   0  0
    2.8400   -3.2830    1.2250 F   0  0
   -0.0640   -2.9280    0.7360 S   0  0
   -1.4550   -2.5590    0.9240 O   0  0
    0.1170   -4.3360    0.4260 O   0  0
    0.4800   -2.0530   -0.6660 N   0  0
    0.2890   -0.6130   -0.6870 C   0  0  2  0  0  0
    0.4690   -0.0700   -2.1050 C   0  0
    1.2130    0.0660    0.3260 C   0  0
    0.0390    1.3810   -2.1970 C   0  0
   -1.2210    1.8710   -2.2320 C   0  0
    0.8830    2.5040   -2.2620 C   0  0
   -1.2460    3.2400   -2.3160 C   0  0
   -2.4200    1.1150   -2.1910 C   0  0
    0.0720    3.6640   -2.3360 N   0  0
   -2.4650    3.9590   -2.3670 C   0  0
   -3.6580    1.8090   -2.2400 C   0  0
   -3.6800    3.2270   -2.3260 C   0  0
    3.9300   -2.6970    3.5140 H   0  0
   -0.9690   -1.9010    3.2340 H   0  0
    1.4800   -2.2480   -0.8240 H   0  0
   -0.7520   -0.5330   -0.3730 H   0  0
   -0.1020   -0.6640   -2.8200 H   0  0
    1.5080   -0.1620   -2.4240 H   0  0
    0.9590   -0.2360    1.3420 H   0  0
    2.2540   -0.1900    0.1290 H   0  0
    1.1190    1.1500    0.2680 H   0  0
    1.9650    2.5230   -2.2580 H   0  0
   -2.4020    0.0370   -2.1270 H   0  0
    0.3950    4.6030   -2.3930 H   0  0
   -2.4750    5.0370   -2.4340 H   0  0
   -4.5840    1.2560   -2.2110 H   0  0
   -4.6250    3.7480   -2.3630 H   0  0
  1  2  1  0
  2  3  2  0
  2  4  1  0
  3  5  1  0
  3  6  1  0
  4  7  2  0
  6  8  2  0
  7  9  1  0
  8 10  1  0
 10 11  2  0
 10 12  2  0
 10 13  1  0
 13 14  1  0
 14 15  1  0
 14 16  1  0
 15 17  1  0
 17 18  1  0
 17 19  2  0
 18 20  1  0
 18 21  2  0
 19 22  1  0
 20 23  2  0
 21 24  1  0
 23 25  1  0
  7  8  1  0
 20 22  1  0
 24 25  2  0
  4 26  1  0
  6 27  1  0
 13 28  1  0
 14 29  1  0
 15 30  1  0
 15 31  1  0
 16 32  1  0
 16 33  1  0
 16 34  1  0
 19 35  1  0
 21 36  1  0
 22 37  1  0
 23 38  1  0
 24 39  1  0
 25 40  1  0
M  END
> <Name>
CHEMBL233661

> <IC50 nM>
3600

> <Molecule_ChEMBL_ID>
CHEMBL233661

> <Smiles>
CC(Cc1c[nH]c2ccccc12)NS(=O)(=O)c1cc(F)c(Br)cc1F

$$$$
CHEMBL1097475
  SciTegic08162514323D

 42 45  0  0  1  0            999 V2000
    4.3890    6.5510   -0.3050 F   0  0
    3.9000    5.3170   -0.2110 C   0  0
    2.8520    5.0410    0.6840 C   0  0
    4.4340    4.2870   -1.0040 C   0  0
    2.3360    3.7380    0.7850 C   0  0
    3.9200    2.9830   -0.9040 C   0  0
    2.8690    2.7050   -0.0080 C   0  0
    2.3710    1.4430    0.0880 N   0  0
    3.1210    0.2890    0.1130 N   0  0
    1.0640    1.0900    0.1800 C   0  0
    2.3890   -0.8770    0.2170 C   0  0
    1.1370   -0.2890    0.2520 C   0  0
   -0.1580    1.8010    0.2050 C   0  0
   -0.0610   -1.0430    0.3610 C   0  0
   -1.3570    1.0530    0.3120 C   0  0
   -1.3090   -0.3670    0.3910 C   0  0
   -2.5570   -1.1370    0.5020 C   0  0  1  0  0  0
   -3.6080   -0.4200   -0.1070 O   0  0
   -2.3930   -2.4490   -0.1780 C   0  0
   -2.8930   -1.3090    1.9840 C   0  0
   -1.9820   -2.4980   -1.5220 C   0  0
   -2.6490   -3.6410    0.5210 C   0  0
   -1.8260   -3.7380   -2.1640 C   0  0
   -2.4940   -4.8810   -0.1210 C   0  0
   -2.0820   -4.9300   -1.4650 C   0  0
   -1.9360   -6.1060   -2.0720 F   0  0
    2.4390    5.8300    1.2970 H   0  0
    5.2400    4.4940   -1.6930 H   0  0
    1.5290    3.5470    1.4800 H   0  0
    4.3440    2.2030   -1.5240 H   0  0
    2.7400   -1.9000    0.2560 H   0  0
   -0.1820    2.8790    0.1460 H   0  0
   -0.0290   -2.1230    0.4200 H   0  0
   -2.3070    1.5660    0.3340 H   0  0
   -3.3730   -0.3090   -1.0410 H   0  0
   -3.8440   -1.8240    2.1070 H   0  0
   -2.1110   -1.8770    2.4920 H   0  0
   -2.9730   -0.3400    2.4770 H   0  0
   -1.7830   -1.5860   -2.0650 H   0  0
   -2.9670   -3.6090    1.5550 H   0  0
   -1.5100   -3.7710   -3.1970 H   0  0
   -2.6910   -5.7950    0.4220 H   0  0
  1  2  1  0
  2  3  2  0
  2  4  1  0
  3  5  1  0
  4  6  2  0
  5  7  2  0
  7  8  1  0
  8  9  1  0
  8 10  1  0
  9 11  2  0
 10 12  1  0
 10 13  2  0
 12 14  2  0
 13 15  1  0
 14 16  1  0
 16 17  1  0
 17 18  1  0
 17 19  1  0
 17 20  1  0
 19 21  2  0
 19 22  1  0
 21 23  1  0
 22 24  2  0
 23 25  2  0
 25 26  1  0
  6  7  1  0
 11 12  1  0
 15 16  2  0
 24 25  1  0
  3 27  1  0
  4 28  1  0
  5 29  1  0
  6 30  1  0
 11 31  1  0
 13 32  1  0
 14 33  1  0
 15 34  1  0
 18 35  1  0
 20 36  1  0
 20 37  1  0
 20 38  1  0
 21 39  1  0
 22 40  1  0
 23 41  1  0
 24 42  1  0
M  END
> <Name>
CHEMBL1097475

> <IC50 nM>
2113

> <Molecule_ChEMBL_ID>
CHEMBL1097475

> <Smiles>
CC(O)(c1ccc(F)cc1)c1ccc2c(cnn2-c2ccc(F)cc2)c1

$$$$
CHEMBL3233280
  SciTegic08162514323D

 54 57  0  0  1  0            999 V2000
   -5.0700    2.3940    2.8480 F   0  0
   -4.7130    1.7130    1.7620 C   0  0
   -3.4570    1.9340    1.1720 C   0  0
   -5.5940    0.7690    1.2050 C   0  0
   -3.0780    1.2130    0.0240 C   0  0
   -5.2190    0.0490    0.0590 C   0  0
   -3.9630    0.2680   -0.5330 C   0  0
   -1.7440    1.4610   -0.5880 C   0  0
   -3.5820   -0.5040   -1.7480 C   0  0
   -1.2310    0.0490   -0.3120 C   0  0
   -0.9650    2.5330    0.1760 C   0  0
   -1.8600    1.7680   -2.0820 C   0  0
    0.2950   -0.0200   -0.2360 C   0  0  1  0  0  0
    0.8240    0.7870   -1.2640 O   0  0
    0.7710    0.5350    1.1000 C   0  0
    0.8320   -1.4400   -0.4180 C   0  0
    0.0160    0.1950    2.3670 C   0  0
    1.3890   -0.3930    2.1230 C   0  0
    2.3460   -1.4650   -0.3550 C   0  0
    3.1020   -2.6680   -0.3550 N   0  0
    3.2340   -0.3750   -0.2930 C   0  0
    4.4370   -2.3030   -0.2930 C   0  0
    4.4630   -0.9320   -0.2560 C   0  0
    5.6390   -3.0630   -0.2640 C   0  0
    5.7170   -0.2890   -0.1870 C   0  0
    6.8750   -2.3520   -0.1930 C   0  0
    6.9200   -0.9610   -0.1540 N   0  0
   -2.7810    2.6600    1.6020 H   0  0
   -6.5610    0.5960    1.6560 H   0  0
   -5.9010   -0.6760   -0.3630 H   0  0
   -4.4490   -0.6090   -2.3980 H   0  0
   -2.7400   -0.0160   -2.2400 H   0  0
   -3.2600   -1.5040   -1.4550 H   0  0
   -1.6100   -0.6520   -1.0570 H   0  0
   -1.6800   -0.3560    0.5940 H   0  0
   -1.4790    3.4940    0.1620 H   0  0
    0.0230    2.6740   -0.2620 H   0  0
   -0.8300    2.2420    1.2170 H   0  0
   -2.8970    1.7770   -2.4160 H   0  0
   -1.3260    1.0190   -2.6700 H   0  0
   -1.4260    2.7400   -2.3110 H   0  0
    0.7850    0.2690   -2.0820 H   0  0
    1.1870    1.5410    1.0250 H   0  0
    0.5000   -1.8590   -1.3670 H   0  0
    0.4260   -2.1060    0.3440 H   0  0
   -0.8460   -0.4710    2.2870 H   0  0
   -0.0760    0.9730    3.1250 H   0  0
    2.2190   -0.0100    2.7170 H   0  0
    1.4510   -1.4550    1.8790 H   0  0
    2.7420   -3.5940   -0.3930 H   0  0
    2.9820    0.6780   -0.2770 H   0  0
    5.6170   -4.1430   -0.2930 H   0  0
    5.7460    0.7910   -0.1580 H   0  0
    7.8010   -2.9080   -0.1700 H   0  0
  1  2  1  0
  2  3  2  0
  2  4  1  0
  3  5  1  0
  4  6  2  0
  5  7  2  0
  5  8  1  0
  7  9  1  0
  8 10  1  0
  8 11  1  0
  8 12  1  0
 10 13  1  0
 13 14  1  0
 13 15  1  0
 13 16  1  0
 15 17  1  0
 15 18  1  0
 16 19  1  0
 19 20  1  0
 19 21  2  0
 20 22  1  0
 21 23  1  0
 22 24  1  0
 23 25  1  0
 24 26  2  0
 25 27  2  0
  6  7  1  0
 17 18  1  0
 22 23  2  0
 26 27  1  0
  3 28  1  0
  4 29  1  0
  6 30  1  0
  9 31  1  0
  9 32  1  0
  9 33  1  0
 10 34  1  0
 10 35  1  0
 11 36  1  0
 11 37  1  0
 11 38  1  0
 12 39  1  0
 12 40  1  0
 12 41  1  0
 14 42  1  0
 15 43  1  0
 16 44  1  0
 16 45  1  0
 17 46  1  0
 17 47  1  0
 18 48  1  0
 18 49  1  0
 20 50  1  0
 21 51  1  0
 24 52  1  0
 25 53  1  0
 26 54  1  0
M  END
> <Name>
CHEMBL3233280

> <IC50 nM>
9

> <Molecule_ChEMBL_ID>
CHEMBL3233280

> <Smiles>
Cc1ccc(F)cc1C(C)(C)CC(O)(Cc1cc2cnccc2[nH]1)C1CC1

$$$$
CHEMBL414449
  SciTegic08162514323D

 72 77  0  0  1  0            999 V2000
    3.7480   -0.2910    1.0250 S   0  0
    2.0720   -0.6000    0.3750 C   0  0  2  0  0  0
    3.3810    1.1540    2.0610 C   0  0  1  0  0  0
    1.5000    0.6600    0.1040 O   0  0
    1.1930   -1.5160    1.2580 C   0  0  2  0  0  0
    2.1230   -1.2320   -1.0140 C   0  0  2  0  0  0
    4.2660    1.2030    3.2700 C   0  0
    3.7290    2.4670    1.3650 C   0  0
    1.8810    1.0660   -1.1880 C   0  0  1  0  0  0
    0.4340   -2.4920    0.3160 C   0  0  3  0  0  0
    0.2580   -0.8070    2.2600 C   0  0
    2.1950   -2.3870    2.0250 C   0  0
    1.8220   -0.1540   -1.8870 O   0  0
    1.0310   -2.3070   -1.0880 C   0  0
    4.4960    0.2230    3.9400 O   0  0
    4.7660    2.4100    3.5040 O   0  0
    4.1500    3.3030    2.5780 C   0  0
    0.8850    2.0660   -1.7560 C   0  0
   -1.1070   -2.3670    0.4140 C   0  0  3  0  0  0
   -1.0410   -0.1760    1.6780 C   0  0  1  0  0  0
    1.4380    2.6520   -3.0570 C   0  0
   -1.5700   -0.8870    0.3890 C   0  0  1  0  0  0
   -1.9060   -3.3500   -0.4860 C   0  0
   -2.0080   -0.2070    2.7130 O   0  0
    0.4880    3.6680   -3.6970 C   0  0
   -0.9430   -0.2540   -0.6600 F   0  0
   -3.0940   -0.7680    0.0590 C   0  0  2  0  0  0
   -2.7290   -2.7290   -1.6350 C   0  0  1  0  0  0
   -3.2620   -1.3360   -1.3540 C   0  0
   -3.6500    0.6880    0.1840 C   0  0
   -3.9200   -1.6520    1.0080 C   0  0
   -1.9320   -2.7050   -2.7560 F   0  0
   -3.8180   -0.6310   -2.3630 C   0  0
   -3.5250    1.5350   -1.0860 C   0  0
   -4.1390    0.7970   -2.2440 C   0  0
   -4.8560    1.3500   -3.0470 O   0  0
    2.3460    1.1370    2.3710 H   0  0
    3.1040   -1.6250   -1.2400 H   0  0
    4.5630    2.3380    0.6930 H   0  0
    2.9000    2.8950    0.8160 H   0  0
    2.8990    1.4300   -1.1720 H   0  0
    0.6430   -3.5160    0.6020 H   0  0
   -0.0160   -1.5590    3.0040 H   0  0
    0.8130   -0.0530    2.8180 H   0  0
    1.6990   -3.1890    2.5700 H   0  0
    2.7500   -1.7870    2.7480 H   0  0
    2.9140   -2.8380    1.3440 H   0  0
    1.4650   -3.2360   -1.4300 H   0  0
    0.2660   -2.0660   -1.8110 H   0  0
    3.2830    3.7380    3.0570 H   0  0
    4.8360    4.0980    2.3280 H   0  0
    0.6780    2.8570   -1.0350 H   0  0
   -0.0820    1.5940   -1.9280 H   0  0
   -1.3400   -2.7230    1.4220 H   0  0
   -0.8730    0.8810    1.4690 H   0  0
    2.4200    3.0920   -2.8950 H   0  0
    1.6840    1.8570   -3.7620 H   0  0
   -1.2520   -4.1370   -0.8670 H   0  0
   -2.6130   -3.8810    0.1520 H   0  0
   -1.8140    0.5350    3.3090 H   0  0
    0.9180    4.0700   -4.6150 H   0  0
   -0.4730    3.2070   -3.9240 H   0  0
    0.3070    4.5020   -3.0200 H   0  0
   -3.5720   -3.3850   -1.8540 H   0  0
   -3.1970    1.2270    1.0120 H   0  0
   -4.7130    0.6450    0.4280 H   0  0
   -4.7700   -2.1070    0.5000 H   0  0
   -4.3050   -1.0680    1.8440 H   0  0
   -3.3070   -2.4570    1.4160 H   0  0
   -4.0180   -1.1190   -3.3070 H   0  0
   -4.0220    2.4980   -0.9490 H   0  0
   -2.4770    1.7480   -1.3030 H   0  0
  2  1  1  0
  3  1  1  0
  2  4  1  0
  2  5  1  0
  2  6  1  0
  3  7  1  0
  3  8  1  0
  4  9  1  0
  5 10  1  0
  5 11  1  0
  5 12  1  0
  6 13  1  0
  6 14  1  0
  7 15  2  0
  7 16  1  0
  8 17  1  0
  9 18  1  0
 10 19  1  0
 11 20  1  0
 18 21  1  0
 19 22  1  0
 19 23  1  0
 20 24  1  0
 21 25  1  0
 22 26  1  0
 22 27  1  0
 23 28  1  0
 27 29  1  0
 27 30  1  0
 27 31  1  0
 28 32  1  0
 29 33  2  0
 30 34  1  0
 33 35  1  0
 35 36  2  0
  9 13  1  0
 10 14  1  0
 16 17  1  0
 20 22  1  0
 28 29  1  0
 34 35  1  0
  3 37  1  0
  6 38  1  0
  8 39  1  0
  8 40  1  0
  9 41  1  0
 10 42  1  0
 11 43  1  0
 11 44  1  0
 12 45  1  0
 12 46  1  0
 12 47  1  0
 14 48  1  0
 14 49  1  0
 17 50  1  0
 17 51  1  0
 18 52  1  0
 18 53  1  0
 19 54  1  0
 20 55  1  0
 21 56  1  0
 21 57  1  0
 23 58  1  0
 23 59  1  0
 24 60  1  0
 25 61  1  0
 25 62  1  0
 25 63  1  0
 28 64  1  0
 30 65  1  0
 30 66  1  0
 31 67  1  0
 31 68  1  0
 31 69  1  0
 33 70  1  0
 34 71  1  0
 34 72  1  0
M  END
> <Name>
CHEMBL414449

> <IC50 nM>
6.4

> <Molecule_ChEMBL_ID>
CHEMBL414449

> <Smiles>
CCC[C@@H]1O[C@@H]2CC3C4C[C@H](F)C5=CC(=O)CC[C@]5(C)[C@@]4(F)[C@@H](O)C[C@]3(C)[C@]2(S[C@@H]2CCOC2=O)O1

$$$$
CHEMBL1085609
  SciTegic08162514323D

 38 41  0  0  0  0            999 V2000
    4.8180    5.8650   -0.7420 F   0  0
    4.3300    4.6310   -0.6460 C   0  0
    3.2830    4.3550    0.2500 C   0  0
    4.8630    3.6010   -1.4410 C   0  0
    2.7680    3.0530    0.3520 C   0  0
    4.3500    2.2970   -1.3420 C   0  0
    3.2990    2.0190   -0.4450 C   0  0
    2.8010    0.7580   -0.3480 N   0  0
    3.5510   -0.3970   -0.3240 N   0  0
    1.4940    0.4040   -0.2580 C   0  0
    2.8200   -1.5630   -0.2190 C   0  0
    1.5660   -0.9730   -0.1830 C   0  0
    0.2730    1.1130   -0.2300 C   0  0
    0.3710   -1.7290   -0.0760 C   0  0
   -0.9260    0.3650   -0.1230 C   0  0
   -0.8850   -1.0570   -0.0450 C   0  0
   -2.1190   -1.8190    0.0650 C   0  0
   -3.1560   -1.3630    0.9010 C   0  0
   -2.2770   -3.0120   -0.6640 C   0  0
   -4.3500   -2.1000    1.0060 C   0  0
   -3.4710   -3.7480   -0.5560 C   0  0
   -4.5060   -3.2930    0.2780 C   0  0
   -5.4450   -1.6190    1.8890 C   0  0
    2.8730    5.1440    0.8630 H   0  0
    5.6680    3.8080   -2.1330 H   0  0
    1.9630    2.8590    1.0470 H   0  0
    4.7710    1.5170   -1.9630 H   0  0
    3.1720   -2.5860   -0.1810 H   0  0
    0.2500    2.1910   -0.2890 H   0  0
    0.4120   -2.8090   -0.0170 H   0  0
   -1.8690    0.8890   -0.1030 H   0  0
   -3.0470   -0.4470    1.4650 H   0  0
   -1.4900   -3.3770   -1.3080 H   0  0
   -3.5920   -4.6640   -1.1150 H   0  0
   -5.4200   -3.8630    0.3560 H   0  0
   -6.3380   -2.2230    1.7190 H   0  0
   -5.1130   -1.6410    2.9260 H   0  0
   -5.6900   -0.5880    1.6370 H   0  0
  1  2  1  0
  2  3  2  0
  2  4  1  0
  3  5  1  0
  4  6  2  0
  5  7  2  0
  7  8  1  0
  8  9  1  0
  8 10  1  0
  9 11  2  0
 10 12  1  0
 10 13  2  0
 12 14  2  0
 13 15  1  0
 14 16  1  0
 16 17  1  0
 17 18  2  0
 17 19  1  0
 18 20  1  0
 19 21  2  0
 20 22  2  0
 20 23  1  0
  6  7  1  0
 11 12  1  0
 15 16  2  0
 21 22  1  0
  3 24  1  0
  4 25  1  0
  5 26  1  0
  6 27  1  0
 11 28  1  0
 13 29  1  0
 14 30  1  0
 15 31  1  0
 18 32  1  0
 19 33  1  0
 21 34  1  0
 22 35  1  0
 23 36  1  0
 23 37  1  0
 23 38  1  0
M  END
> <Name>
CHEMBL1085609

> <IC50 nM>
3162.28

> <Molecule_ChEMBL_ID>
CHEMBL1085609

> <Smiles>
Cc1cccc(-c2ccc3c(cnn3-c3ccc(F)cc3)c2)c1

$$$$
CHEMBL393011
  SciTegic08162514323D

 64 67  0  0  1  0            999 V2000
   -4.9860    0.4710    3.7150 F   0  0
   -5.5760    1.5590    3.2190 C   0  0
   -4.9710    2.3160    2.1890 C   0  0
   -6.8220    1.9510    3.7360 C   0  0
   -3.7660    1.9590    1.6760 N   0  0
   -5.6270    3.4570    1.6880 C   0  0
   -7.4710    3.0920    3.2320 C   0  0
   -3.4960    0.7540    1.1640 N   0  0
   -2.6600    2.7420    1.5980 C   0  0
   -6.8730    3.8440    2.2090 C   0  0
   -8.6510    3.4610    3.7270 F   0  0
   -2.2270    0.6760    0.7290 C   0  0
   -2.5000    4.1410    2.0390 N   0  0
   -1.6600    1.9410    0.9920 C   0  0
   -0.2910    2.3420    0.6930 C   0  0
    0.1410    3.3890    1.1170 O   0  0
    0.4980    1.5250   -0.0660 N   0  0
    1.8790    1.9340   -0.3650 C   0  0
    2.8420    0.7540   -0.2210 C   0  0  3  0  0  0
    3.4430    0.5180   -1.4730 O   0  0
    3.9470    1.0190    0.8010 C   0  0
    2.1390   -0.5290    0.2230 C   0  0
    4.7810   -0.0660    0.8630 F   0  0
    3.3910    1.2380    2.0330 F   0  0
    4.6640    2.1250    0.4220 F   0  0
    1.7640   -1.4380   -0.9590 C   0  0  3  0  0  0
    2.8300   -2.4690   -1.1880 C   0  0
    0.3830   -2.0610   -0.6540 C   0  0
    1.6540   -0.5720   -2.2210 C   0  0
    2.5180   -3.8520   -1.3850 C   0  0
    4.1910   -2.0610   -1.2290 C   0  0
    0.0740   -3.2440   -1.5720 C   0  0
    0.5490   -1.0430   -3.1660 C   0  0
    3.5630   -4.7830   -1.6050 C   0  0
    1.1170   -4.3480   -1.3590 C   0  0
    5.2250   -3.0000   -1.4470 C   0  0
    4.9100   -4.3610   -1.6350 C   0  0
   -7.2850    1.3730    4.5240 H   0  0
   -5.1840    4.0510    0.8980 H   0  0
   -7.3670    4.7210    1.8160 H   0  0
   -1.7730   -0.1950    0.2750 H   0  0
   -1.6290    4.6250    1.9630 H   0  0
   -3.2790    4.6350    2.4300 H   0  0
    0.1390    0.6600   -0.4160 H   0  0
    1.9200    2.3420   -1.3750 H   0  0
    2.1640    2.7480    0.2990 H   0  0
    3.6880    1.3830   -1.8400 H   0  0
    2.7460   -1.0720    0.9470 H   0  0
    1.2600   -0.3010    0.8260 H   0  0
   -0.4000   -1.3050   -0.7440 H   0  0
    0.3420   -2.4060    0.3810 H   0  0
    1.5140    0.4770   -1.9550 H   0  0
    2.6110   -0.5240   -2.7400 H   0  0
    4.4510   -1.0220   -1.0920 H   0  0
   -0.9240   -3.6310   -1.3670 H   0  0
    0.0740   -2.9180   -2.6130 H   0  0
    0.2990   -0.2640   -3.8850 H   0  0
    0.8590   -1.9380   -3.7050 H   0  0
   -0.3560   -1.2870   -2.6090 H   0  0
    3.3340   -5.8300   -1.7540 H   0  0
    0.9430   -4.8240   -0.3930 H   0  0
    0.9770   -5.1210   -2.1170 H   0  0
    6.2540   -2.6740   -1.4710 H   0  0
    5.6990   -5.0800   -1.8030 H   0  0
  1  2  1  0
  2  3  2  0
  2  4  1  0
  3  5  1  0
  3  6  1  0
  4  7  2  0
  5  8  1  0
  5  9  1  0
  6 10  2  0
  7 11  1  0
  8 12  2  0
  9 13  1  0
  9 14  2  0
 14 15  1  0
 15 16  2  0
 15 17  1  0
 17 18  1  0
 18 19  1  0
 19 20  1  0
 19 21  1  0
 19 22  1  0
 21 23  1  0
 21 24  1  0
 21 25  1  0
 22 26  1  0
 26 27  1  0
 26 28  1  0
 26 29  1  0
 27 30  2  0
 27 31  1  0
 28 32  1  0
 29 33  1  0
 30 34  1  0
 30 35  1  0
 31 36  2  0
 34 37  2  0
  7 10  1  0
 12 14  1  0
 32 35  1  0
 36 37  1  0
  4 38  1  0
  6 39  1  0
 10 40  1  0
 12 41  1  0
 13 42  1  0
 13 43  1  0
 17 44  1  0
 18 45  1  0
 18 46  1  0
 20 47  1  0
 22 48  1  0
 22 49  1  0
 28 50  1  0
 28 51  1  0
 29 52  1  0
 29 53  1  0
 31 54  1  0
 32 55  1  0
 32 56  1  0
 33 57  1  0
 33 58  1  0
 33 59  1  0
 34 60  1  0
 35 61  1  0
 35 62  1  0
 36 63  1  0
 37 64  1  0
M  END
> <Name>
CHEMBL393011

> <IC50 nM>
4.68

> <Molecule_ChEMBL_ID>
CHEMBL393011

> <Smiles>
CCC1(CC(O)(CNC(=O)c2cnn(-c3ccc(F)cc3F)c2N)C(F)(F)F)CCCc2ccccc21

$$$$
CHEMBL392319
  SciTegic08162514323D

 62 65  0  0  1  0            999 V2000
   -4.5760    2.3360    2.2380 F   0  0
   -3.5920    1.4800    2.6600 C   0  0
   -2.4840    2.2010    3.0240 F   0  0
   -4.0430    0.7620    3.7360 F   0  0
   -3.2290    0.5230    1.5250 C   0  0  3  0  0  0
   -4.4020   -0.1390    1.1110 O   0  0
   -2.7320    1.3890    0.3670 C   0  0
   -2.2090   -0.5350    1.9490 C   0  0
   -1.2890    1.6440    0.4790 N   0  0
   -2.2190   -1.7700    1.0330 C   0  0  3  0  0  0
   -0.5470    1.8120   -0.6560 C   0  0
   -0.9100   -2.4980    1.1060 C   0  0
   -3.4120   -2.6520    1.4570 C   0  0
   -2.4280   -1.2990   -0.4120 C   0  0
   -1.0720    1.7520   -1.7420 O   0  0
    0.8830    2.0640   -0.5490 C   0  0
   -0.8460   -3.9260    1.1860 C   0  0
    0.3050   -1.7580    1.0800 C   0  0
   -3.3480   -4.0350    0.8070 C   0  0
    1.7750    2.2950   -1.6190 C   0  0
    1.6310    2.1230    0.6470 C   0  0
    0.4160   -4.5720    1.2230 C   0  0
   -2.0720   -4.7660    1.2380 C   0  0
    1.5550   -2.4120    1.1270 C   0  0
    2.9960    2.4800   -1.0640 N   0  0
    1.4800    2.3400   -3.1070 C   0  0
    2.8960    2.3770    0.2660 N   0  0
    1.6110   -3.8200    1.1930 C   0  0
    4.1500    2.7340   -1.7320 C   0  0
    4.5350    1.9160   -2.8120 C   0  0
    4.9670    3.8160   -1.3500 C   0  0
    5.7310    2.1780   -3.5020 C   0  0
    6.1600    4.0760   -2.0430 C   0  0
    6.5430    3.2580   -3.1190 C   0  0
   -4.8830    0.4710    0.5290 H   0  0
   -2.9380    0.9080   -0.5900 H   0  0
   -3.2640    2.3400    0.3420 H   0  0
   -2.3630   -0.8240    2.9880 H   0  0
   -1.2070   -0.1060    2.0060 H   0  0
   -0.8460    1.6950    1.3730 H   0  0
   -4.3540   -2.1640    1.1990 H   0  0
   -3.4260   -2.7750    2.5410 H   0  0
   -3.4410   -0.9340   -0.5780 H   0  0
   -2.2480   -2.1150   -1.1110 H   0  0
   -1.7380   -0.4900   -0.6580 H   0  0
    0.2850   -0.6780    1.0240 H   0  0
   -3.3730   -3.9360   -0.2790 H   0  0
   -4.2250   -4.6230    1.0840 H   0  0
    1.3010    1.9960    1.6700 H   0  0
    0.4710   -5.6490    1.2740 H   0  0
   -2.1930   -5.1170    2.2640 H   0  0
   -1.9430   -5.6540    0.6190 H   0  0
    2.4690   -1.8360    1.1090 H   0  0
    0.4510    2.6600   -3.2660 H   0  0
    2.2050    2.9860   -3.6040 H   0  0
    1.5880    1.3400   -3.5290 H   0  0
    2.5640   -4.3220    1.2230 H   0  0
    3.9240    1.0800   -3.1230 H   0  0
    4.6890    4.4570   -0.5230 H   0  0
    6.0250    1.5490   -4.3300 H   0  0
    6.7850    4.9060   -1.7480 H   0  0
    7.4610    3.4610   -3.6500 H   0  0
  1  2  1  0
  2  3  1  0
  2  4  1  0
  2  5  1  0
  5  6  1  0
  5  7  1  0
  5  8  1  0
  7  9  1  0
  8 10  1  0
  9 11  1  0
 10 12  1  0
 10 13  1  0
 10 14  1  0
 11 15  2  0
 11 16  1  0
 12 17  2  0
 12 18  1  0
 13 19  1  0
 16 20  2  0
 16 21  1  0
 17 22  1  0
 17 23  1  0
 18 24  2  0
 20 25  1  0
 20 26  1  0
 21 27  2  0
 22 28  2  0
 25 29  1  0
 29 30  2  0
 29 31  1  0
 30 32  1  0
 31 33  2  0
 32 34  2  0
 19 23  1  0
 24 28  1  0
 25 27  1  0
 33 34  1  0
  6 35  1  0
  7 36  1  0
  7 37  1  0
  8 38  1  0
  8 39  1  0
  9 40  1  0
 13 41  1  0
 13 42  1  0
 14 43  1  0
 14 44  1  0
 14 45  1  0
 18 46  1  0
 19 47  1  0
 19 48  1  0
 21 49  1  0
 22 50  1  0
 23 51  1  0
 23 52  1  0
 24 53  1  0
 26 54  1  0
 26 55  1  0
 26 56  1  0
 28 57  1  0
 30 58  1  0
 31 59  1  0
 32 60  1  0
 33 61  1  0
 34 62  1  0
M  END
> <Name>
CHEMBL392319

> <IC50 nM>
9.33

> <Molecule_ChEMBL_ID>
CHEMBL392319

> <Smiles>
Cc1c(C(=O)NCC(O)(CC2(C)CCCc3ccccc32)C(F)(F)F)cnn1-c1ccccc1

$$$$
CHEMBL400609
  SciTegic08162514323D

 49 50  0  0  1  0            999 V2000
   -2.3180   -2.9570    0.6190 F   0  0
   -3.2540   -2.0120    0.5550 C   0  0
   -2.8940   -0.6480    0.5660 C   0  0
   -4.6090   -2.3790    0.4730 C   0  0
   -3.8890    0.3440    0.4980 C   0  0
   -1.4650   -0.2500    0.6520 C   0  0
   -5.5990   -1.3810    0.4040 C   0  0
   -5.2440   -0.0200    0.4180 C   0  0
   -0.9140    0.1660   -0.7130 C   0  0  2  0  0  0
   -6.9860   -1.7560    0.3200 C   0  0
   -1.4350    1.4360   -1.0290 O   0  0
   -1.3050   -0.8050   -1.8260 C   0  0
    0.6130    0.2580   -0.7290 C   0  0
   -8.1030   -2.0590    0.2540 N   0  0
   -2.6600   -0.7560   -2.0220 F   0  0
   -0.9390   -2.0780   -1.4730 F   0  0
   -0.6640   -0.4510   -2.9860 F   0  0
    1.1720    1.0020    0.4840 C   0  0
    2.5450    1.1090   -0.0780 C   0  0
    0.5330    2.3790    0.6780 C   0  0
    1.1510    0.1560    1.7580 C   0  0
    3.4180    0.0040   -0.0430 C   0  0
    2.9710    2.3240   -0.6470 C   0  0
    3.0300   -1.1390    0.4860 O   0  0
    4.7130    0.1230   -0.5780 C   0  0
    4.2660    2.4380   -1.1800 C   0  0
    3.8770   -2.2680    0.3280 C   0  0
    5.1370    1.3360   -1.1470 C   0  0
    4.6680    3.5880   -1.7190 F   0  0
   -4.8750   -3.4260    0.4630 H   0  0
   -3.6150    1.3890    0.5100 H   0  0
   -1.3550    0.5590    1.3750 H   0  0
   -0.8830   -1.0720    1.0680 H   0  0
   -5.9960    0.7540    0.3650 H   0  0
   -1.7890    1.8140   -0.2090 H   0  0
    1.0570   -0.7320   -0.8130 H   0  0
    0.9610    0.7150   -1.6560 H   0  0
    1.1780    3.0490    1.2480 H   0  0
   -0.4120    2.2910    1.2130 H   0  0
    0.3320    2.8480   -0.2830 H   0  0
    0.3220    0.4300    2.4120 H   0  0
    2.0760    0.2810    2.3180 H   0  0
    1.0470   -0.9020    1.5160 H   0  0
    2.3010    3.1740   -0.6740 H   0  0
    5.3850   -0.7230   -0.5530 H   0  0
    3.3950   -3.1250    0.7990 H   0  0
    4.1140   -2.3710   -0.7310 H   0  0
    4.8070   -2.0740    0.8610 H   0  0
    6.1330    1.4180   -1.5550 H   0  0
  1  2  1  0
  2  3  2  0
  2  4  1  0
  3  5  1  0
  3  6  1  0
  4  7  2  0
  5  8  2  0
  6  9  1  0
  7 10  1  0
  9 11  1  0
  9 12  1  0
  9 13  1  0
 10 14  3  0
 12 15  1  0
 12 16  1  0
 12 17  1  0
 13 18  1  0
 18 19  1  0
 18 20  1  0
 18 21  1  0
 19 22  2  0
 19 23  1  0
 22 24  1  0
 22 25  1  0
 23 26  2  0
 24 27  1  0
 25 28  2  0
 26 29  1  0
  7  8  1  0
 26 28  1  0
  4 30  1  0
  5 31  1  0
  6 32  1  0
  6 33  1  0
  8 34  1  0
 11 35  1  0
 13 36  1  0
 13 37  1  0
 20 38  1  0
 20 39  1  0
 20 40  1  0
 21 41  1  0
 21 42  1  0
 21 43  1  0
 23 44  1  0
 25 45  1  0
 27 46  1  0
 27 47  1  0
 27 48  1  0
 28 49  1  0
M  END
> <Name>
CHEMBL400609

> <IC50 nM>
22

> <Molecule_ChEMBL_ID>
CHEMBL400609

> <Smiles>
COc1ccc(F)cc1C(C)(C)CC(O)(Cc1ccc(C#N)cc1F)C(F)(F)F

$$$$
CHEMBL1095542
  SciTegic08162514323D

 39 42  0  0  1  0            999 V2000
    4.3460    6.0290   -1.3340 F   0  0
    3.8570    4.7930   -1.2380 C   0  0
    2.8130    4.5180   -0.3400 C   0  0
    4.3870    3.7660   -2.0350 C   0  0
    2.2970    3.2150   -0.2380 C   0  0
    3.8730    2.4610   -1.9360 C   0  0
    2.8260    2.1820   -1.0370 C   0  0
    2.3280    0.9220   -0.9390 N   0  0
    3.0760   -0.2340   -0.9160 N   0  0
    1.0200    0.5680   -0.8480 C   0  0
    2.3460   -1.4010   -0.8110 C   0  0
    1.0940   -0.8110   -0.7750 C   0  0
   -0.2010    1.2770   -0.8220 C   0  0
   -0.1040   -1.5670   -0.6680 C   0  0
   -1.4000    0.5290   -0.7150 C   0  0
   -1.3540   -0.8890   -0.6370 C   0  0
   -2.6020   -1.6600   -0.5250 C   0  0  1  0  0  0
   -2.5430   -2.7760   -1.3830 O   0  0
   -2.7750   -2.1210    0.8770 C   0  0
   -2.0390   -3.2230    1.3520 C   0  0
   -3.6740   -1.4570    1.7300 C   0  0
   -2.2030   -3.6580    2.6780 C   0  0
   -3.8380   -1.8930    3.0570 C   0  0
   -3.1040   -2.9940    3.5310 C   0  0
   -3.2580   -3.4080    4.7870 F   0  0
    2.4020    5.3070    0.2750 H   0  0
    5.1900    3.9730   -2.7290 H   0  0
    1.4920    3.0210    0.4590 H   0  0
    4.2930    1.6840   -2.5590 H   0  0
    2.6970   -2.4220   -0.7710 H   0  0
   -0.2250    2.3550   -0.8810 H   0  0
   -0.0720   -2.6450   -0.6070 H   0  0
   -2.3500    1.0450   -0.6930 H   0  0
   -3.4430   -1.0270   -0.8070 H   0  0
   -3.3980   -3.2290   -1.3220 H   0  0
   -1.3480   -3.7360    0.7010 H   0  0
   -4.2400   -0.6090    1.3730 H   0  0
   -1.6370   -4.5040    3.0370 H   0  0
   -4.5290   -1.3790    3.7090 H   0  0
  1  2  1  0
  2  3  2  0
  2  4  1  0
  3  5  1  0
  4  6  2  0
  5  7  2  0
  7  8  1  0
  8  9  1  0
  8 10  1  0
  9 11  2  0
 10 12  1  0
 10 13  2  0
 12 14  2  0
 13 15  1  0
 14 16  1  0
 16 17  1  0
 17 18  1  0
 17 19  1  0
 19 20  2  0
 19 21  1  0
 20 22  1  0
 21 23  2  0
 22 24  2  0
 24 25  1  0
  6  7  1  0
 11 12  1  0
 15 16  2  0
 23 24  1  0
  3 26  1  0
  4 27  1  0
  5 28  1  0
  6 29  1  0
 11 30  1  0
 13 31  1  0
 14 32  1  0
 15 33  1  0
 17 34  1  0
 18 35  1  0
 20 36  1  0
 21 37  1  0
 22 38  1  0
 23 39  1  0
M  END
> <Name>
CHEMBL1095542

> <IC50 nM>
10000

> <Molecule_ChEMBL_ID>
CHEMBL1095542

> <Smiles>
OC(c1ccc(F)cc1)c1ccc2c(cnn2-c2ccc(F)cc2)c1

$$$$
CHEMBL212312
  SciTegic08162514323D

 53 56  0  0  1  0            999 V2000
    4.2890   -5.8400   -0.4260 Br  0  0
    4.1020   -3.9610   -0.3520 C   0  0
    2.8340   -3.3110   -0.4900 C   0  0
    5.2740   -3.1930   -0.1460 C   0  0
    2.7720   -1.8830   -0.4080 C   0  0
    1.5920   -4.1170   -0.7030 C   0  0
    5.2030   -1.7870   -0.0660 C   0  0
    3.9590   -1.1370   -0.1930 C   0  0
    1.4880   -1.1370   -0.5490 C   0  0  3  0  0  0
    0.3500   -3.3070   -1.1030 C   0  0
    0.2540   -2.0160   -0.2910 C   0  0
    1.4140   -0.4780   -1.9320 C   0  0
    1.0040    0.9920   -1.8630 C   0  0  3  0  0  0
    1.9060    1.6640   -1.0140 O   0  0
   -0.3980    1.1740   -1.3460 C   0  0
    1.0330    1.6780   -3.2290 C   0  0
   -1.3360    1.2580   -2.1050 O   0  0
   -0.5980    1.2440    0.0040 N   0  0
    0.6130    2.9770   -3.0980 F   0  0
    0.1990    1.0140   -4.0920 F   0  0
    2.3130    1.6600   -3.7230 F   0  0
   -1.8360    1.4040    0.4920 C   0  0
   -2.0680    2.2930    1.5760 C   0  0
   -2.9260    0.6900   -0.0700 C   0  0
   -3.3790    2.4590    2.0880 C   0  0
   -4.2360    0.8560    0.4390 C   0  0
   -4.4530    1.7420    1.5200 C   0  0
   -3.6660    3.3790    3.2290 C   0  0
   -5.8070    1.9610    2.1020 C   0  0
   -4.8690    3.5080    3.6720 N   0  0
   -2.5660    4.1760    3.8830 C   0  0
   -6.7870    1.3930    1.6780 O   0  0
   -6.0330    2.8030    3.1370 O   0  0
    6.2380   -3.6700   -0.0490 H   0  0
    1.3770   -4.6520    0.2230 H   0  0
    1.7560   -4.8710   -1.4730 H   0  0
    6.1000   -1.2090    0.0920 H   0  0
    3.9180   -0.0610   -0.1250 H   0  0
    1.4690   -0.3380    0.1950 H   0  0
    0.3950   -3.0640   -2.1660 H   0  0
   -0.5470   -3.9080   -0.9650 H   0  0
   -0.6560   -1.4750   -0.5470 H   0  0
    0.1800   -2.2580    0.7700 H   0  0
    2.3590   -0.5900   -2.4630 H   0  0
    0.7440   -1.0350   -2.5880 H   0  0
    2.7990    1.5060   -1.3630 H   0  0
    0.1780    1.1740    0.6310 H   0  0
   -1.2460    2.8440    2.0120 H   0  0
   -2.7710    0.0080   -0.8960 H   0  0
   -5.0570    0.3070    0.0000 H   0  0
   -2.9840    4.8180    4.6560 H   0  0
   -1.8110    3.5020    4.2890 H   0  0
   -2.0800    4.8150    3.1470 H   0  0
  1  2  1  0
  2  3  2  0
  2  4  1  0
  3  5  1  0
  3  6  1  0
  4  7  2  0
  5  8  2  0
  5  9  1  0
  6 10  1  0
  9 11  1  0
  9 12  1  0
 12 13  1  0
 13 14  1  0
 13 15  1  0
 13 16  1  0
 15 17  2  0
 15 18  1  0
 16 19  1  0
 16 20  1  0
 16 21  1  0
 18 22  1  0
 22 23  2  0
 22 24  1  0
 23 25  1  0
 24 26  2  0
 25 27  2  0
 25 28  1  0
 27 29  1  0
 28 30  2  0
 28 31  1  0
 29 32  2  0
 29 33  1  0
  7  8  1  0
 10 11  1  0
 26 27  1  0
 30 33  1  0
  4 34  1  0
  6 35  1  0
  6 36  1  0
  7 37  1  0
  8 38  1  0
  9 39  1  0
 10 40  1  0
 10 41  1  0
 11 42  1  0
 11 43  1  0
 12 44  1  0
 12 45  1  0
 14 46  1  0
 18 47  1  0
 23 48  1  0
 24 49  1  0
 26 50  1  0
 31 51  1  0
 31 52  1  0
 31 53  1  0
M  END
> <Name>
CHEMBL212312

> <IC50 nM>
630.96

> <Molecule_ChEMBL_ID>
CHEMBL212312

> <Smiles>
Cc1noc(=O)c2ccc(NC(=O)C(O)(CC3CCCc4c(Br)cccc43)C(F)(F)F)cc12

$$$$
CHEMBL347159
  SciTegic08162514323D

 75 79  0  0  1  0            999 V2000
   -2.9450    2.0510    0.7770 S   0  0
   -1.7850    0.7360    0.2930 C   0  0  2  0  0  0
   -4.2870    1.0120    1.4240 C   0  0  3  0  0  0
   -1.6820   -0.1990    1.3570 O   0  0
   -0.4100    1.2500   -0.1740 C   0  0  2  0  0  0
   -2.2930   -0.0920   -0.8890 C   0  0  2  0  0  0
   -5.6130    1.6040    1.0310 C   0  0
   -4.1560    0.8240    2.9360 C   0  0
   -2.2210   -1.4550    0.9940 C   0  0  1  0  0  0
    0.1350    0.0310   -0.9430 C   0  0  3  0  0  0
    0.6030    1.6880    0.8980 C   0  0
   -0.7400    2.4180   -1.1150 C   0  0
   -2.8050   -1.2560   -0.2730 O   0  0
   -1.0740   -0.3850   -1.7830 C   0  0
   -6.1510    2.4400    1.7190 O   0  0
   -6.1270    1.1390   -0.1050 O   0  0
   -5.1370   -0.2090    3.4900 C   0  0
   -1.1080   -2.4920    0.8980 C   0  0
    1.4490    0.4040   -1.6560 C   0  0  3  0  0  0
    2.0270    1.9280    0.3200 C   0  0  1  0  0  0
   -4.9260   -0.3180    4.8790 O   0  0
   -1.6190   -3.8380    1.4100 C   0  0
    2.5170    0.7440   -0.5640 C   0  0  1  0  0  0
    1.9370   -0.5660   -2.7640 C   0  0
    2.0450    3.1390   -0.4120 O   0  0
   -2.6470   -4.4750    0.4750 C   0  0
    2.6030   -0.3070    0.3320 F   0  0
    3.9280    0.8750   -1.2340 C   0  0  2  0  0  0
    3.2460   -1.3300   -2.4790 C   0  0  1  0  0  0
    4.2830   -0.5430   -1.6950 C   0  0
    5.0270    1.5080   -0.3280 C   0  0
    3.8420    1.7660   -2.4880 C   0  0
    2.9080   -2.4610   -1.7750 F   0  0
    5.4530   -1.1370   -1.3830 C   0  0
    5.8260    0.5040    0.5060 C   0  0
    6.3850   -0.5590   -0.4060 C   0  0
    7.5330   -0.9260   -0.3360 O   0  0
   -4.1960    0.0060    1.0160 H   0  0
   -3.0840    0.3870   -1.4450 H   0  0
   -4.2680    1.7770    3.4530 H   0  0
   -3.1310    0.5660    3.2050 H   0  0
   -2.9810   -1.7520    1.7030 H   0  0
    0.3440   -0.7770   -0.2600 H   0  0
    0.6760    0.9120    1.6620 H   0  0
    0.2420    2.5760    1.4200 H   0  0
    0.1330    2.7500   -1.6740 H   0  0
   -1.1190    3.2720   -0.5530 H   0  0
   -1.5080    2.1290   -1.8340 H   0  0
   -1.1250    0.2190   -2.6780 H   0  0
   -1.0160   -1.4140   -2.1040 H   0  0
   -6.9770    1.4790   -0.4140 H   0  0
   -4.9610   -1.1860    3.0410 H   0  0
   -6.1660    0.1130    3.3280 H   0  0
   -0.2330   -2.1720    1.4630 H   0  0
   -0.7520   -2.5800   -0.1290 H   0  0
    1.2460    1.3260   -2.1990 H   0  0
    2.6990    2.0740    1.1660 H   0  0
   -5.5510   -0.9790    5.2130 H   0  0
   -0.7910   -4.5200    1.5960 H   0  0
   -2.0280   -3.7360    2.4160 H   0  0
    1.1480   -1.2620   -3.0510 H   0  0
    2.1110    0.0250   -3.6640 H   0  0
    2.9180    3.5430   -0.2750 H   0  0
   -2.9180   -5.4730    0.8200 H   0  0
   -3.5450   -3.8610    0.4140 H   0  0
   -2.2400   -4.5720   -0.5330 H   0  0
    3.6840   -1.6480   -3.4260 H   0  0
    4.6290    2.2950    0.3110 H   0  0
    5.7580    2.0220   -0.9570 H   0  0
    4.6760    1.5900   -3.1680 H   0  0
    3.8530    2.8200   -2.2130 H   0  0
    2.9200    1.5740   -3.0350 H   0  0
    5.7110   -2.0820   -1.8420 H   0  0
    5.1870    0.0390    1.2580 H   0  0
    6.6350    1.0060    1.0350 H   0  0
  2  1  1  0
  1  3  1  0
  2  4  1  0
  2  5  1  0
  2  6  1  0
  3  7  1  0
  3  8  1  0
  4  9  1  0
  5 10  1  0
  5 11  1  0
  5 12  1  0
  6 13  1  0
  6 14  1  0
  7 15  2  0
  7 16  1  0
  8 17  1  0
  9 18  1  0
 10 19  1  0
 11 20  1  0
 17 21  1  0
 18 22  1  0
 19 23  1  0
 19 24  1  0
 20 25  1  0
 22 26  1  0
 23 27  1  0
 23 28  1  0
 24 29  1  0
 28 30  1  0
 28 31  1  0
 28 32  1  0
 29 33  1  0
 30 34  2  0
 31 35  1  0
 34 36  1  0
 36 37  2  0
  9 13  1  0
 10 14  1  0
 20 23  1  0
 29 30  1  0
 35 36  1  0
  3 38  1  0
  6 39  1  0
  8 40  1  0
  8 41  1  0
  9 42  1  0
 10 43  1  0
 11 44  1  0
 11 45  1  0
 12 46  1  0
 12 47  1  0
 12 48  1  0
 14 49  1  0
 14 50  1  0
 16 51  1  0
 17 52  1  0
 17 53  1  0
 18 54  1  0
 18 55  1  0
 19 56  1  0
 20 57  1  0
 21 58  1  0
 22 59  1  0
 22 60  1  0
 24 61  1  0
 24 62  1  0
 25 63  1  0
 26 64  1  0
 26 65  1  0
 26 66  1  0
 29 67  1  0
 31 68  1  0
 31 69  1  0
 32 70  1  0
 32 71  1  0
 32 72  1  0
 34 73  1  0
 35 74  1  0
 35 75  1  0
M  END
> <Name>
CHEMBL347159

> <IC50 nM>
400

> <Molecule_ChEMBL_ID>
CHEMBL347159

> <Smiles>
CCC[C@@H]1O[C@@H]2CC3C4C[C@H](F)C5=CC(=O)CC[C@]5(C)[C@@]4(F)[C@@H](O)C[C@]3(C)[C@]2(SC(CCO)C(=O)O)O1

$$$$
CHEMBL1085958
  SciTegic08162514323D

 57 61  0  0  0  0            999 V2000
   -5.0390   -2.3890    0.3950 S   0  0
   -6.2440   -3.0680    0.8400 O   0  0
   -5.3110   -1.2090   -0.4080 O   0  0
   -4.2360   -1.9060    1.7170 N   0  0
   -4.1150   -3.4920   -0.5570 C   0  0
   -3.0740   -1.1910    1.5880 C   0  0
   -4.2330   -3.4790   -1.9570 C   0  0
   -3.2460   -4.4020    0.0700 C   0  0
   -2.5390   -0.9360    0.3120 C   0  0
   -2.4140   -0.7110    2.7340 C   0  0
   -3.4810   -4.3770   -2.7360 C   0  0
   -2.4940   -5.3010   -0.7090 C   0  0
   -1.3480   -0.2010    0.1780 C   0  0
   -1.2230    0.0210    2.6040 C   0  0
   -3.5880   -4.3650   -4.0510 O   0  0
   -2.6110   -5.2870   -2.1090 C   0  0
   -0.6860    0.2790    1.3280 C   0  0
   -0.8070    0.0530   -1.1880 C   0  0
   -2.4610   -4.7640   -4.8150 C   0  0
    0.5510    1.0410    1.2190 C   0  0
   -1.6520   -0.4880   -2.1210 F   0  0
    0.4320   -0.5220   -1.3050 F   0  0
   -0.7050    1.4040   -1.3950 F   0  0
   -1.3180   -4.2700   -4.2380 F   0  0
   -2.5780   -4.2750   -6.0920 F   0  0
   -2.3970   -6.1330   -4.8540 F   0  0
    1.8050    0.3710    1.1870 C   0  0
    0.5100    2.4630    1.1390 C   0  0
    3.0020    1.1250    1.0800 C   0  0
    1.7070    3.2130    1.0330 C   0  0
    2.9300    2.5020    1.0060 C   0  0
    4.2540    0.5350    1.0450 C   0  0
    4.2360    2.8570    0.9160 N   0  0
    4.9860    1.7010    0.9390 N   0  0
    4.7340    4.1170    0.8180 C   0  0
    4.2030    5.1500    1.6150 C   0  0
    5.7830    4.3950   -0.0800 C   0  0
    4.7190    6.4530    1.5140 C   0  0
    6.2970    5.6990   -0.1800 C   0  0
    5.7660    6.7290    0.6170 C   0  0
    6.2540    7.9650    0.5210 F   0  0
   -4.5880   -2.1310    2.6250 H   0  0
   -4.9010   -2.7770   -2.4340 H   0  0
   -3.1560   -4.4140    1.1460 H   0  0
   -3.0390   -1.2990   -0.5740 H   0  0
   -2.8090   -0.8980    3.7230 H   0  0
   -1.8260   -6.0020   -0.2290 H   0  0
   -0.7290    0.3830    3.4960 H   0  0
   -2.0330   -5.9790   -2.7030 H   0  0
    1.8480   -0.7090    1.2460 H   0  0
   -0.4360    2.9880    1.1600 H   0  0
    1.6840    4.2910    0.9730 H   0  0
    4.6050   -0.4860    1.0820 H   0  0
    3.3980    4.9590    2.3110 H   0  0
    6.2050    3.6170   -0.7010 H   0  0
    4.3090    7.2420    2.1270 H   0  0
    7.1020    5.9080   -0.8690 H   0  0
  1  2  2  0
  1  3  2  0
  1  4  1  0
  1  5  1  0
  4  6  1  0
  5  7  2  0
  5  8  1  0
  6  9  2  0
  6 10  1  0
  7 11  1  0
  8 12  2  0
  9 13  1  0
 10 14  2  0
 11 15  1  0
 11 16  2  0
 13 17  2  0
 13 18  1  0
 15 19  1  0
 17 20  1  0
 18 21  1  0
 18 22  1  0
 18 23  1  0
 19 24  1  0
 19 25  1  0
 19 26  1  0
 20 27  2  0
 20 28  1  0
 27 29  1  0
 28 30  2  0
 29 31  2  0
 29 32  1  0
 31 33  1  0
 32 34  2  0
 33 35  1  0
 35 36  2  0
 35 37  1  0
 36 38  1  0
 37 39  2  0
 38 40  2  0
 40 41  1  0
 12 16  1  0
 14 17  1  0
 30 31  1  0
 33 34  1  0
 39 40  1  0
  4 42  1  0
  7 43  1  0
  8 44  1  0
  9 45  1  0
 10 46  1  0
 12 47  1  0
 14 48  1  0
 16 49  1  0
 27 50  1  0
 28 51  1  0
 30 52  1  0
 32 53  1  0
 36 54  1  0
 37 55  1  0
 38 56  1  0
 39 57  1  0
M  END
> <Name>
CHEMBL1085958

> <IC50 nM>
79.43

> <Molecule_ChEMBL_ID>
CHEMBL1085958

> <Smiles>
O=S(=O)(Nc1ccc(-c2ccc3c(cnn3-c3ccc(F)cc3)c2)c(C(F)(F)F)c1)c1cccc(OC(F)(F)F)c1

$$$$
CHEMBL1929042
  SciTegic08162514323D

 44 47  0  0  0  0            999 V2000
    2.5900    3.2850    3.5940 F   0  0
    2.3610    2.1970    2.8630 C   0  0
    3.3380    1.7350    1.9650 C   0  0
    1.1420    1.5100    2.9880 C   0  0
    3.1010    0.5840    1.1900 C   0  0
    0.9000    0.3610    2.2190 C   0  0
    1.8750   -0.1070    1.3160 C   0  0
    4.1640    0.1270    0.2500 C   0  0
    1.6190   -1.2210    0.5820 N   0  0
    2.3770   -2.3260    0.5450 N   0  0
    0.5740   -1.4410   -0.2420 C   0  0
    1.8550   -3.2660   -0.2830 C   0  0
   -0.5530   -0.5350   -0.5570 C   0  0
    0.6680   -2.7190   -0.8200 C   0  0
    2.4860   -4.6190   -0.5310 C   0  0
   -1.8650   -1.0450   -0.4860 C   0  0
   -0.2620    0.7970   -0.9140 C   0  0
    3.7400   -4.4490   -1.0550 F   0  0
    1.7130   -5.3280   -1.4140 F   0  0
    2.5740   -5.3070    0.6520 F   0  0
   -2.9450   -0.1740   -0.7870 C   0  0
   -1.3440    1.6620   -1.2110 C   0  0
   -4.2230   -0.6250   -0.7540 N   0  0
   -2.6800    1.1880   -1.1390 C   0  0
   -1.0700    3.0590   -1.5900 C   0  0
   -5.2930    0.2310   -0.8850 C   0  0
   -3.6970    2.0310   -1.4200 O   0  0
   -6.4240   -0.2010   -0.8890 O   0  0
   -5.0350    1.7190   -1.0160 C   0  0
    4.2730    2.2680    1.8710 H   0  0
    0.3890    1.8610    3.6780 H   0  0
   -0.0450   -0.1520    2.3320 H   0  0
    3.8100   -0.0720   -0.7620 H   0  0
    4.6170   -0.7890    0.6310 H   0  0
    4.9450    0.8850    0.1860 H   0  0
   -0.0120   -3.1870   -1.5200 H   0  0
   -2.0330   -2.0780   -0.2110 H   0  0
    0.7580    1.1510   -0.9630 H   0  0
   -4.4060   -1.6030   -0.6370 H   0  0
    0.0000    3.2500   -1.5250 H   0  0
   -1.4750    3.2500   -2.5840 H   0  0
   -1.5720    3.7290   -0.8930 H   0  0
   -5.7250    2.1700   -1.7280 H   0  0
   -5.2090    2.1940   -0.0490 H   0  0
  1  2  1  0
  2  3  2  0
  2  4  1  0
  3  5  1  0
  4  6  2  0
  5  7  2  0
  5  8  1  0
  7  9  1  0
  9 10  1  0
  9 11  1  0
 10 12  2  0
 11 13  1  0
 11 14  2  0
 12 15  1  0
 13 16  2  0
 13 17  1  0
 15 18  1  0
 15 19  1  0
 15 20  1  0
 16 21  1  0
 17 22  2  0
 21 23  1  0
 21 24  2  0
 22 25  1  0
 23 26  1  0
 24 27  1  0
 26 28  2  0
 26 29  1  0
  6  7  1  0
 12 14  1  0
 22 24  1  0
 27 29  1  0
  3 30  1  0
  4 31  1  0
  6 32  1  0
  8 33  1  0
  8 34  1  0
  8 35  1  0
 14 36  1  0
 16 37  1  0
 17 38  1  0
 23 39  1  0
 25 40  1  0
 25 41  1  0
 25 42  1  0
 29 43  1  0
 29 44  1  0
M  END
> <Name>
CHEMBL1929042

> <IC50 nM>
470

> <Molecule_ChEMBL_ID>
CHEMBL1929042

> <Smiles>
Cc1cc(F)ccc1-n1nc(C(F)(F)F)cc1-c1cc(C)c2c(c1)NC(=O)CO2

$$$$
CHEMBL155725
  SciTegic08162514323D

 70 74  0  0  1  0            999 V2000
   -2.6170   -1.0820   -1.6130 S   0  0
   -1.7480   -0.0820   -0.3650 C   0  0  2  0  0  0
   -3.5530   -2.1640   -0.4940 C   0  0  3  0  0  0
   -2.3770    1.1840   -0.2580 O   0  0
   -0.2300    0.0310   -0.6030 C   0  0  2  0  0  0
   -1.8890   -0.6430    1.0590 C   0  0  2  0  0  0
   -2.6800   -3.3130   -0.0610 C   0  0
   -4.8520   -2.6350   -1.1480 C   0  0
   -3.3220    1.1540    0.7850 C   0  0
    0.2890    0.3240    0.8140 C   0  0  3  0  0  0
    0.2750    1.1390   -1.5450 C   0  0
    0.2110   -1.3610   -1.0780 C   0  0
   -2.6680    0.3360    1.7270 O   0  0
   -0.4770   -0.6990    1.6560 C   0  0
   -1.8160   -3.7460   -0.7870 O   0  0
   -2.9360   -3.7890    1.1540 O   0  0
   -4.6110   -3.4430   -2.4260 C   0  0
   -4.6050    0.4770    0.3130 C   0  0
   -3.5330    2.5510    1.3560 C   0  0
    1.8260    0.2700    0.8650 C   0  0  3  0  0  0
    1.8200    1.2460   -1.5350 C   0  0  1  0  0  0
   -4.2680   -2.5450   -3.4550 O   0  0
    2.4340    1.3320   -0.1000 C   0  0  1  0  0  0
    2.3010    0.4780    2.3180 C   0  0
    2.3540    0.1540   -2.2580 O   0  0
    2.0410    2.5720    0.3670 F   0  0
    3.9980    1.3090   -0.0310 C   0  0  2  0  0  0
    3.8320    0.5020    2.4260 C   0  0  1  0  0  0
    4.4430    1.4730    1.4260 C   0  0
    4.6080    2.3500   -0.9670 C   0  0
    4.5670   -0.0430   -0.4800 C   0  0
    4.1660    0.8030    3.7250 F   0  0
    5.3260    2.4240    1.8070 C   0  0
    5.4810    3.2870   -0.5570 C   0  0
    5.9040    3.3670    0.8440 C   0  0
    6.7130    4.1930    1.1990 O   0  0
   -3.8750   -1.5960    0.3770 H   0  0
   -2.4020   -1.5940    1.0880 H   0  0
   -5.5120   -1.7910   -1.3460 H   0  0
   -5.4550   -3.2030   -0.4410 H   0  0
   -0.0290    1.3120    1.1190 H   0  0
   -0.1290    2.1040   -1.2340 H   0  0
   -0.0980    0.9790   -2.5590 H   0  0
    1.2910   -1.4920   -1.0040 H   0  0
   -0.0740   -1.5220   -2.1170 H   0  0
   -0.2600   -2.1390   -0.4770 H   0  0
   -0.4490   -0.4750    2.7130 H   0  0
   -0.0550   -1.6860    1.5270 H   0  0
   -2.4140   -4.5290    1.4900 H   0  0
   -5.5180   -3.9710   -2.7230 H   0  0
   -3.7850   -4.1390   -2.2910 H   0  0
   -4.9670   -0.2580    1.0330 H   0  0
   -4.4430   -0.0390   -0.6330 H   0  0
   -5.3970    1.2110    0.1600 H   0  0
   -2.5880    2.9790    1.6900 H   0  0
   -3.9770    3.2090    0.6070 H   0  0
   -4.2070    2.5200    2.2110 H   0  0
    2.1540   -0.7210    0.5510 H   0  0
    2.0980    2.1310   -2.1070 H   0  0
   -4.1580   -3.0680   -4.2660 H   0  0
    1.8930    1.4120    2.7090 H   0  0
    1.9120   -0.3140    2.9570 H   0  0
    1.8580    0.0920   -3.0900 H   0  0
    4.2150   -0.4960    2.2090 H   0  0
    4.3320    2.3420   -2.0100 H   0  0
    5.5980   -0.1800   -0.1520 H   0  0
    4.5490   -0.1270   -1.5660 H   0  0
    3.9770   -0.8630   -0.0720 H   0  0
    5.6290    2.5120    2.8400 H   0  0
    5.8770    3.9920   -1.2730 H   0  0
  2  1  1  0
  1  3  1  0
  2  4  1  0
  2  5  1  0
  2  6  1  0
  3  7  1  0
  3  8  1  0
  4  9  1  0
  5 10  1  0
  5 11  1  0
  5 12  1  0
  6 13  1  0
  6 14  1  0
  7 15  2  0
  7 16  1  0
  8 17  1  0
  9 18  1  0
  9 19  1  0
 10 20  1  0
 11 21  1  0
 17 22  1  0
 20 23  1  0
 20 24  1  0
 21 25  1  0
 23 26  1  0
 23 27  1  0
 24 28  1  0
 27 29  1  0
 27 30  1  0
 27 31  1  0
 28 32  1  0
 29 33  2  0
 30 34  2  0
 33 35  1  0
 35 36  2  0
  9 13  1  0
 10 14  1  0
 21 23  1  0
 28 29  1  0
 34 35  1  0
  3 37  1  0
  6 38  1  0
  8 39  1  0
  8 40  1  0
 10 41  1  0
 11 42  1  0
 11 43  1  0
 12 44  1  0
 12 45  1  0
 12 46  1  0
 14 47  1  0
 14 48  1  0
 16 49  1  0
 17 50  1  0
 17 51  1  0
 18 52  1  0
 18 53  1  0
 18 54  1  0
 19 55  1  0
 19 56  1  0
 19 57  1  0
 20 58  1  0
 21 59  1  0
 22 60  1  0
 24 61  1  0
 24 62  1  0
 25 63  1  0
 28 64  1  0
 30 65  1  0
 31 66  1  0
 31 67  1  0
 31 68  1  0
 33 69  1  0
 34 70  1  0
M  END
> <Name>
CHEMBL155725

> <IC50 nM>
289

> <Molecule_ChEMBL_ID>
CHEMBL155725

> <Smiles>
CC1(C)O[C@@H]2CC3C4C[C@H](F)C5=CC(=O)C=C[C@]5(C)[C@@]4(F)[C@@H](O)C[C@]3(C)[C@]2(SC(CCO)C(=O)O)O1

$$$$
CHEMBL51639
  SciTegic08162514323D

 43 44  0  0  1  0            999 V2000
    0.0180   -5.8870    1.5530 Br  0  0
   -0.1990   -4.0240    1.3570 C   0  0
    0.8810   -3.1390    1.5740 C   0  0
   -1.4590   -3.5120    0.9880 C   0  0
    2.0700   -3.5900    1.9200 O   0  0
    0.6880   -1.7560    1.4200 C   0  0
   -1.6480   -2.1270    0.8380 C   0  0
    3.1250   -2.6490    2.0610 C   0  0
   -0.5700   -1.2480    1.0530 C   0  0
   -2.8340   -1.6620    0.4940 O   0  0
   -0.7540    0.2210    0.8960 C   0  0
   -0.7830    0.6310   -0.5800 C   0  0  2  0  0  0
    0.5020    0.1760   -1.2400 C   0  0
   -1.0060    2.1540   -0.7660 C   0  0
    0.5270   -0.8770   -2.0780 C   0  0
    1.7560    0.9570   -0.9220 C   0  0
    0.2620    2.9280   -0.3030 C   0  0  1  0  0  0
   -2.2380    2.5860    0.0450 C   0  0
   -1.3010    2.4360   -2.2480 C   0  0
    1.5270    2.4710   -1.0590 C   0  0
    0.0760    4.8570   -0.4770 Br  0  0
   -2.2950   -4.1760    0.8180 H   0  0
    1.5140   -1.0800    1.5840 H   0  0
    4.0160   -3.1800    2.3910 H   0  0
    3.2130   -2.0920    1.1250 H   0  0
    2.8480   -1.9410    2.8420 H   0  0
   -2.9690   -0.7070    0.4410 H   0  0
    0.0410    0.7440    1.4280 H   0  0
   -1.6720    0.5270    1.4000 H   0  0
   -1.6250    0.1050   -1.0410 H   0  0
   -0.3090   -1.4940   -2.3710 H   0  0
    1.4960   -1.1130   -2.4940 H   0  0
    2.5780    0.6480   -1.5700 H   0  0
    2.0610    0.7270    0.0980 H   0  0
    0.4140    2.7560    0.7640 H   0  0
   -2.0230    2.6370    1.1110 H   0  0
   -3.0590    1.8830   -0.0980 H   0  0
   -2.5820    3.5700   -0.2730 H   0  0
   -0.4610    2.1600   -2.8890 H   0  0
   -1.5080    3.4920   -2.4060 H   0  0
   -2.1700    1.8710   -2.5820 H   0  0
    2.4080    2.9960   -0.6880 H   0  0
    1.4420    2.7210   -2.1170 H   0  0
  1  2  1  0
  2  3  2  0
  2  4  1  0
  3  5  1  0
  3  6  1  0
  4  7  2  0
  5  8  1  0
  6  9  2  0
  7 10  1  0
  9 11  1  0
 12 11  1  0
 12 13  1  0
 12 14  1  0
 13 15  2  0
 13 16  1  0
 14 17  1  0
 14 18  1  0
 14 19  1  0
 16 20  1  0
 17 21  1  0
  7  9  1  0
 17 20  1  0
  4 22  1  0
  6 23  1  0
  8 24  1  0
  8 25  1  0
  8 26  1  0
 10 27  1  0
 11 28  1  0
 11 29  1  0
 12 30  1  0
 15 31  1  0
 15 32  1  0
 16 33  1  0
 16 34  1  0
 17 35  1  0
 18 36  1  0
 18 37  1  0
 18 38  1  0
 19 39  1  0
 19 40  1  0
 19 41  1  0
 20 42  1  0
 20 43  1  0
M  END
> <Name>
CHEMBL51639

> <IC50 nM>
10000

> <Molecule_ChEMBL_ID>
CHEMBL51639

> <Smiles>
C=C1CC[C@@H](Br)C(C)(C)[C@@H]1Cc1cc(OC)c(Br)cc1O

$$$$
CHEMBL1917415
  SciTegic08162514323D

 78 84  0  0  1  0            999 V2000
    4.1780   -0.0700    0.4650 S   0  0
    4.8810    1.4710    0.5370 C   0  0
    3.2340    0.0100   -1.0080 C   0  0
    4.8200    2.5660   -0.3070 N   0  0
    5.6820    1.5820    1.7320 C   0  0
    1.8260    0.4280   -0.6780 C   0  0
    5.4850    3.7440   -0.0530 C   0  0
    6.3810    2.8090    2.0060 C   0  0
    5.8130    0.5140    2.6720 C   0  0
    1.5740    1.5620   -0.3500 O   0  0
    0.7360   -0.6150   -0.7710 C   0  0  2  0  0  0
    6.2780    3.8950    1.1020 C   0  0
    7.1760    2.9490    3.1700 C   0  0
    6.6060    0.6640    3.8320 C   0  0
    0.5660   -0.9300   -2.1480 O   0  0
   -0.6130   -0.1990   -0.1580 C   0  0  2  0  0  0
    1.0450   -1.9060    0.0020 C   0  0
    7.2870    1.8770    4.0800 C   0  0
    0.8500    0.0980   -2.9430 C   0  0
   -1.3500   -1.5450   -0.1700 C   0  0  1  0  0  0
   -1.4690    0.7770   -0.9800 C   0  0
   -0.3420    0.3110    1.2700 C   0  0
   -0.3090   -2.4940    0.4220 C   0  0
    0.4590    1.2270   -2.7500 O   0  0
    1.6840   -0.1970   -4.1000 C   0  0
   -2.6950   -1.4650    0.5720 C   0  0  1  0  0  0
   -2.8810    0.9510   -0.3670 C   0  0  1  0  0  0
    2.0140    0.8340   -4.9280 O   0  0
    2.2150   -1.4240   -4.5020 C   0  0
   -3.6110   -0.4000   -0.0900 C   0  0  2  0  0  0
   -3.3750   -2.8460    0.5570 C   0  0
   -2.7770    1.7360    0.8050 O   0  0
    2.7810    0.2360   -5.8870 C   0  0
    2.9300   -1.1410   -5.6660 C   0  0
   -4.9790   -0.2950    0.6700 C   0  0  2  0  0  0
   -4.7320   -2.8200    1.2730 C   0  0
   -5.6190   -1.6820    0.8090 C   0  0
   -5.9020    0.7170   -0.0020 C   0  0
   -4.7890    0.1910    2.1150 C   0  0
   -6.9280   -1.9000    0.5530 C   0  0
   -7.2030    0.4690   -0.2500 C   0  0
   -7.8050   -0.8220    0.0860 C   0  0
   -8.9960   -0.9960   -0.0230 O   0  0
    3.6840    0.7300   -1.6890 H   0  0
    3.2270   -0.9690   -1.4880 H   0  0
    5.3970    4.5640   -0.7500 H   0  0
    5.3220   -0.4390    2.5490 H   0  0
    6.7890    4.8300    1.2790 H   0  0
    7.7050    3.8690    3.3770 H   0  0
    6.6920   -0.1520    4.5330 H   0  0
    1.6310   -1.7030    0.8870 H   0  0
    1.6130   -2.5980   -0.6020 H   0  0
    7.8930    1.9820    4.9690 H   0  0
   -1.5390   -1.8480   -1.1930 H   0  0
   -1.5820    0.3910   -1.9940 H   0  0
   -0.9650    1.7400   -1.0820 H   0  0
   -1.2420    0.2420    1.8810 H   0  0
    0.4510   -0.2700    1.7420 H   0  0
   -0.0290    1.3540    1.2540 H   0  0
   -0.4390   -3.5040    0.0630 H   0  0
   -0.3890   -2.5250    1.5000 H   0  0
   -2.5120   -1.1800    1.6070 H   0  0
   -3.4670    1.5450   -1.0700 H   0  0
    2.0980   -2.3850   -4.0200 H   0  0
   -3.8440   -0.7910   -1.0860 H   0  0
   -3.5120   -3.1820   -0.4730 H   0  0
   -2.7380   -3.5880    1.0410 H   0  0
   -2.4040    2.5940    0.5450 H   0  0
    3.2190    0.7750   -6.7150 H   0  0
    3.4860   -1.8400   -6.2770 H   0  0
   -5.2300   -3.7790    1.1290 H   0  0
   -4.5700   -2.7150    2.3480 H   0  0
   -5.5100    1.6800   -0.2970 H   0  0
   -5.6460   -0.0570    2.7420 H   0  0
   -4.6580    1.2710    2.1450 H   0  0
   -3.9060   -0.2640    2.5630 H   0  0
   -7.3440   -2.8890    0.6890 H   0  0
   -7.8070    1.2400   -0.7030 H   0  0
  1  2  1  0
  1  3  1  0
  2  4  2  0
  2  5  1  0
  3  6  1  0
  4  7  1  0
  5  8  1  0
  5  9  2  0
  6 10  2  0
  6 11  1  0
  7 12  2  0
  8 13  2  0
  9 14  1  0
 11 15  1  0
 11 16  1  0
 11 17  1  0
 13 18  1  0
 15 19  1  0
 16 20  1  0
 16 21  1  0
 16 22  1  0
 17 23  1  0
 19 24  2  0
 19 25  1  0
 20 26  1  0
 21 27  1  0
 25 28  1  0
 25 29  2  0
 30 26  1  0
 26 31  1  0
 27 32  1  0
 28 33  1  0
 29 34  1  0
 30 35  1  0
 31 36  1  0
 35 37  1  0
 35 38  1  0
 35 39  1  0
 37 40  2  0
 38 41  2  0
 40 42  1  0
 42 43  2  0
  8 12  1  0
 14 18  2  0
 20 23  1  0
 27 30  1  0
 33 34  2  0
 36 37  1  0
 41 42  1  0
  3 44  1  0
  3 45  1  0
  7 46  1  0
  9 47  1  0
 12 48  1  0
 13 49  1  0
 14 50  1  0
 17 51  1  0
 17 52  1  0
 18 53  1  0
 20 54  1  0
 21 55  1  0
 21 56  1  0
 22 57  1  0
 22 58  1  0
 22 59  1  0
 23 60  1  0
 23 61  1  0
 26 62  1  0
 27 63  1  0
 29 64  1  0
 30 65  1  0
 31 66  1  0
 31 67  1  0
 32 68  1  0
 33 69  1  0
 34 70  1  0
 36 71  1  0
 36 72  1  0
 38 73  1  0
 39 74  1  0
 39 75  1  0
 39 76  1  0
 40 77  1  0
 41 78  1  0
M  END
> <Name>
CHEMBL1917415

> <IC50 nM>
2.1

> <Molecule_ChEMBL_ID>
CHEMBL1917415

> <Smiles>
C[C@]12C=CC(=O)C=C1CC[C@@H]1[C@@H]2[C@@H](O)C[C@@]2(C)[C@H]1CC[C@]2(OC(=O)c1ccco1)C(=O)CSc1nccc2ccccc12

$$$$
CHEMBL68804
  SciTegic08162514323D

 51 53  0  0  0  0            999 V2000
   -3.5810   -0.2290    3.5770 S   0  0
   -5.0040    0.0240    3.4440 O   0  0
   -3.2560   -1.6430    3.6610 O   0  0
   -2.8540    0.3590    2.2540 N   0  0
   -2.9840    0.5880    5.0520 C   0  0
   -1.5850   -0.0490    1.9290 C   0  0
   -1.0390    0.1990    0.6470 C   0  0
   -0.8210   -0.7270    2.8980 C   0  0
    0.2750   -0.2370    0.3500 C   0  0
   -1.8440    0.9190   -0.3880 C   0  0
    0.4800   -1.1570    2.5980 C   0  0
    0.8380   -0.0150   -0.8810 N   0  0
    1.0270   -0.9140    1.3290 C   0  0
    1.0950    1.3500   -1.3610 C   0  0
    1.1950   -1.1520   -1.7420 C   0  0
    2.4580    1.8140   -0.9910 C   0  0
   -0.0040   -1.7460   -2.3900 C   0  0
    2.6490    2.5830    0.1710 C   0  0
    3.5580    1.4830   -1.8020 C   0  0
   -0.6850   -2.8080   -1.7690 C   0  0
   -0.4580   -1.2460   -3.6230 C   0  0
    3.9380    3.0210    0.5210 C   0  0
    4.8470    1.9210   -1.4520 C   0  0
   -1.8190   -3.3690   -2.3820 C   0  0
   -1.5920   -1.8070   -4.2350 C   0  0
    5.0380    2.6900   -0.2900 C   0  0
   -2.2730   -2.8690   -3.6150 C   0  0
    6.2580    3.1050    0.0410 F   0  0
   -3.3310    1.0200    1.6740 H   0  0
   -3.3180    0.1310    5.9840 H   0  0
   -3.3180    1.6260    5.0520 H   0  0
   -1.8940    0.5880    5.0520 H   0  0
   -1.2220   -0.9250    3.8830 H   0  0
   -2.8790    0.5770   -0.3460 H   0  0
   -1.7500    1.9950   -0.2390 H   0  0
   -1.4560    0.6850   -1.3790 H   0  0
    1.0620   -1.6770    3.3450 H   0  0
    2.0320   -1.2550    1.1200 H   0  0
    0.3530    2.0260   -0.9340 H   0  0
    0.9840    1.3760   -2.4450 H   0  0
    1.6980   -1.9110   -1.1430 H   0  0
    1.8930   -0.8160   -2.5090 H   0  0
    1.8080    2.8400    0.7980 H   0  0
    3.4190    0.8920   -2.6960 H   0  0
   -0.3420   -3.1970   -0.8220 H   0  0
    0.0610   -0.4300   -4.1060 H   0  0
    4.0790    3.6110    1.4140 H   0  0
    5.6890    1.6650   -2.0780 H   0  0
   -2.3420   -4.1850   -1.9050 H   0  0
   -1.9410   -1.4230   -5.1830 H   0  0
   -3.1440   -3.3010   -4.0850 H   0  0
  1  2  2  0
  1  3  2  0
  1  4  1  0
  1  5  1  0
  4  6  1  0
  6  7  2  0
  6  8  1  0
  7  9  1  0
  7 10  1  0
  8 11  2  0
  9 12  1  0
  9 13  2  0
 12 14  1  0
 12 15  1  0
 14 16  1  0
 15 17  1  0
 16 18  2  0
 16 19  1  0
 17 20  2  0
 17 21  1  0
 18 22  1  0
 19 23  2  0
 20 24  1  0
 21 25  2  0
 22 26  2  0
 24 27  2  0
 26 28  1  0
 11 13  1  0
 23 26  1  0
 25 27  1  0
  4 29  1  0
  5 30  1  0
  5 31  1  0
  5 32  1  0
  8 33  1  0
 10 34  1  0
 10 35  1  0
 10 36  1  0
 11 37  1  0
 13 38  1  0
 14 39  1  0
 14 40  1  0
 15 41  1  0
 15 42  1  0
 18 43  1  0
 19 44  1  0
 20 45  1  0
 21 46  1  0
 22 47  1  0
 23 48  1  0
 24 49  1  0
 25 50  1  0
 27 51  1  0
M  END
> <Name>
CHEMBL68804

> <IC50 nM>
47

> <Molecule_ChEMBL_ID>
CHEMBL68804

> <Smiles>
Cc1c(NS(C)(=O)=O)cccc1N(Cc1ccccc1)Cc1ccc(F)cc1

$$$$
CHEMBL1084716
  SciTegic08162514323D

 80 84  0  0  0  0            999 V2000
   -1.9180   -1.1870   -0.7680 S   0  0
   -2.2660    0.1060   -1.3340 O   0  0
   -1.1150   -2.0060   -1.6600 O   0  0
   -1.0410   -0.9160    0.5660 N   0  0
   -3.3810   -2.0390   -0.4180 C   0  0
    0.1230   -0.1950    0.4840 C   0  0
   -4.5800   -1.3280   -0.2210 C   0  0
   -3.3730   -3.4450   -0.3320 C   0  0
    0.7400    0.2830    1.6560 C   0  0
    0.7030    0.0660   -0.7690 C   0  0
   -5.7680   -2.0230    0.0630 C   0  0
   -4.5960    0.1560   -0.3120 C   0  0
   -4.5630   -4.1370   -0.0470 C   0  0
   -2.1090   -4.2030   -0.5390 C   0  0
    1.9340    1.0220    1.5760 C   0  0
    1.8960    0.8030   -0.8530 C   0  0
   -5.7620   -3.4260    0.1500 C   0  0
   -4.7090    0.6310   -1.7620 C   0  0
   -5.6680    0.7640    0.5920 C   0  0
   -1.9960   -5.3810    0.4300 C   0  0
   -1.9380   -4.6210   -2.0000 C   0  0
    2.5160    1.2830    0.3160 C   0  0
    2.5620    1.5140    2.8340 C   0  0
   -7.0200   -4.1600    0.4510 C   0  0
    3.7540    2.0470    0.2050 C   0  0
    3.8610    1.0820    2.8970 F   0  0
    1.8670    1.0270    3.9120 F   0  0
    2.5330    2.8850    2.8540 F   0  0
   -7.7030   -4.6500   -0.8260 C   0  0
   -6.7890   -5.2810    1.4650 C   0  0
    5.0080    1.3750    0.1760 C   0  0
    3.7130    3.4690    0.1270 C   0  0
    6.2050    2.1310    0.0660 C   0  0
    4.9100    4.2170    0.0200 C   0  0
    6.1310    3.5080   -0.0060 C   0  0
    7.4570    1.5410    0.0310 C   0  0
    7.4390    3.8610   -0.0980 N   0  0
    8.1880    2.7070   -0.0720 N   0  0
    7.9380    5.1230   -0.1930 C   0  0
    8.8110    5.4570   -1.2460 C   0  0
    7.5800    6.0980    0.7560 C   0  0
    9.3260    6.7620   -1.3460 C   0  0
    8.0960    7.4030    0.6540 C   0  0
    8.9690    7.7350   -0.3960 C   0  0
    9.4550    8.9690   -0.4900 F   0  0
   -1.3480   -1.2710    1.4470 H   0  0
    0.3030    0.0880    2.6250 H   0  0
    0.2420   -0.2950   -1.6800 H   0  0
   -6.6900   -1.4780    0.2150 H   0  0
   -3.6000    0.3580    0.0840 H   0  0
   -4.5570   -5.2150    0.0200 H   0  0
   -1.4000   -3.4180   -0.2750 H   0  0
    2.3280    0.9940   -1.8260 H   0  0
   -4.3110    1.6370   -1.8910 H   0  0
   -5.7500    0.6390   -2.0840 H   0  0
   -4.1580   -0.0330   -2.4280 H   0  0
   -5.5410    0.4610    1.6330 H   0  0
   -6.6640    0.4490    0.2730 H   0  0
   -5.6330    1.8520    0.5550 H   0  0
   -2.2090   -5.0840    1.4570 H   0  0
   -0.9900   -5.8030    0.4060 H   0  0
   -2.6950   -6.1720    0.1580 H   0  0
   -1.9320   -3.7600   -2.6700 H   0  0
   -2.7480   -5.2790   -2.3090 H   0  0
   -0.9980   -5.1560   -2.1390 H   0  0
   -7.5820   -3.3440    0.9000 H   0  0
   -7.8050   -3.8540   -1.5620 H   0  0
   -8.7010   -5.0290   -0.6050 H   0  0
   -7.1330   -5.4590   -1.2830 H   0  0
   -6.2830   -4.8980    2.3540 H   0  0
   -7.7350   -5.7340    1.7600 H   0  0
   -6.1620   -6.0640    1.0370 H   0  0
    5.0490    0.2950    0.2340 H   0  0
    2.7680    3.9920    0.1480 H   0  0
    4.8870    5.2950   -0.0390 H   0  0
    7.8090    0.5180    0.0700 H   0  0
    9.0980    4.7230   -1.9860 H   0  0
    6.9100    5.8610    1.5720 H   0  0
    9.9960    7.0140   -2.1540 H   0  0
    7.8180    8.1470    1.3870 H   0  0
  1  2  2  0
  1  3  2  0
  1  4  1  0
  1  5  1  0
  4  6  1  0
  5  7  2  0
  5  8  1  0
  6  9  2  0
  6 10  1  0
  7 11  1  0
  7 12  1  0
  8 13  2  0
  8 14  1  0
  9 15  1  0
 10 16  2  0
 11 17  2  0
 12 18  1  0
 12 19  1  0
 14 20  1  0
 14 21  1  0
 15 22  2  0
 15 23  1  0
 17 24  1  0
 22 25  1  0
 23 26  1  0
 23 27  1  0
 23 28  1  0
 24 29  1  0
 24 30  1  0
 25 31  2  0
 25 32  1  0
 31 33  1  0
 32 34  2  0
 33 35  2  0
 33 36  1  0
 35 37  1  0
 36 38  2  0
 37 39  1  0
 39 40  2  0
 39 41  1  0
 40 42  1  0
 41 43  2  0
 42 44  2  0
 44 45  1  0
 13 17  1  0
 16 22  1  0
 34 35  1  0
 37 38  1  0
 43 44  1  0
  4 46  1  0
  9 47  1  0
 10 48  1  0
 11 49  1  0
 12 50  1  0
 13 51  1  0
 14 52  1  0
 16 53  1  0
 18 54  1  0
 18 55  1  0
 18 56  1  0
 19 57  1  0
 19 58  1  0
 19 59  1  0
 20 60  1  0
 20 61  1  0
 20 62  1  0
 21 63  1  0
 21 64  1  0
 21 65  1  0
 24 66  1  0
 29 67  1  0
 29 68  1  0
 29 69  1  0
 30 70  1  0
 30 71  1  0
 30 72  1  0
 31 73  1  0
 32 74  1  0
 34 75  1  0
 36 76  1  0
 40 77  1  0
 41 78  1  0
 42 79  1  0
 43 80  1  0
M  END
> <Name>
CHEMBL1084716

> <IC50 nM>
10000

> <Molecule_ChEMBL_ID>
CHEMBL1084716

> <Smiles>
CC(C)c1cc(C(C)C)c(S(=O)(=O)Nc2ccc(-c3ccc4c(cnn4-c4ccc(F)cc4)c3)c(C(F)(F)F)c2)c(C(C)C)c1

$$$$
CHEMBL1668065
  SciTegic08162514323D

 63 66  0  0  1  0            999 V2000
   -0.5960   -4.1990    0.1090 S   0  0
    0.8380   -4.4300    0.1230 O   0  0
   -1.3030   -4.9140    1.1580 O   0  0
   -0.8120   -2.5060    0.4530 N   0  0
   -1.2170   -4.7210   -1.4180 C   0  0
   -0.4340   -2.0250    1.7710 C   0  0
   -0.5590   -5.7380   -2.1330 C   0  0
   -2.3790   -4.1270   -1.9450 C   0  0
   -0.7280   -0.5290    1.9000 C   0  0  2  0  0  0
   -1.0620   -6.1620   -3.3750 C   0  0
    0.6700   -6.3710   -1.5820 C   0  0
   -2.8810   -4.5530   -3.1880 C   0  0
   -3.0780   -3.0510   -1.1950 C   0  0
    0.3730    0.2730    1.3510 N   0  0
   -1.0470   -0.1130    3.3360 C   0  0
   -2.2250   -5.5700   -3.9020 C   0  0
    0.2600    1.6130    1.2810 C   0  0
   -2.7580   -6.0200   -5.2150 C   0  0
    1.4920    2.3440    1.1740 C   0  0
   -0.9820    2.2970    1.3100 C   0  0
    1.4140    3.7270    1.1000 C   0  0
    2.7700    1.7810    1.1350 C   0  0
   -1.0120    3.7130    1.2320 C   0  0
    2.7190    4.0960    1.0080 N   0  0
    0.1950    4.4450    1.1250 C   0  0
    3.4850    2.9550    1.0310 N   0  0
   -2.3010    4.4240    1.2620 C   0  0
    3.2030    5.3610    0.9120 C   0  0
    2.6720    6.3870    1.7190 C   0  0
    4.2380    5.6540    0.0020 C   0  0
    3.1740    7.6950    1.6170 C   0  0
    4.7380    6.9650   -0.0980 C   0  0
    4.2070    7.9840    0.7110 C   0  0
    4.6820    9.2250    0.6150 F   0  0
   -0.3100   -1.9450   -0.2500 H   0  0
   -0.9710   -2.5900    2.5330 H   0  0
    0.6230   -2.2270    1.9410 H   0  0
   -1.5330   -0.2360    1.2250 H   0  0
   -0.5590   -6.9430   -3.9240 H   0  0
    0.6040   -6.6370   -0.5270 H   0  0
    1.5140   -5.6900   -1.6990 H   0  0
    0.8950   -7.2770   -2.1430 H   0  0
   -3.7730   -4.0980   -3.5940 H   0  0
   -3.1680   -3.2340   -0.1250 H   0  0
   -4.0840   -2.9240   -1.5960 H   0  0
   -2.5470   -2.1090   -1.3280 H   0  0
    1.2070   -0.1760    1.0290 H   0  0
   -1.2930    0.9470    3.3830 H   0  0
   -1.8870   -0.6890    3.7270 H   0  0
   -0.1910   -0.2870    3.9860 H   0  0
   -3.6540   -5.4920   -5.5390 H   0  0
   -2.9940   -7.0820   -5.1680 H   0  0
   -1.9960   -5.8810   -5.9830 H   0  0
   -1.9080    1.7440    1.3930 H   0  0
    3.1470    0.7680    1.1700 H   0  0
    0.1880    5.5250    1.0640 H   0  0
   -3.1700    3.7730    1.3530 H   0  0
   -2.4160    5.0060    0.3460 H   0  0
   -2.3140    5.1170    2.1020 H   0  0
    1.8770    6.1840    2.4240 H   0  0
    4.6600    4.8830   -0.6270 H   0  0
    2.7620    8.4770    2.2400 H   0  0
    5.5330    7.1840   -0.7950 H   0  0
  1  2  2  0
  1  3  2  0
  1  4  1  0
  1  5  1  0
  4  6  1  0
  5  7  2  0
  5  8  1  0
  6  9  1  0
  7 10  1  0
  7 11  1  0
  8 12  2  0
  8 13  1  0
  9 14  1  0
  9 15  1  0
 10 16  2  0
 14 17  1  0
 16 18  1  0
 17 19  2  0
 17 20  1  0
 19 21  1  0
 19 22  1  0
 20 23  2  0
 21 24  1  0
 21 25  2  0
 22 26  2  0
 23 27  1  0
 24 28  1  0
 28 29  2  0
 28 30  1  0
 29 31  1  0
 30 32  2  0
 31 33  2  0
 33 34  1  0
 12 16  1  0
 23 25  1  0
 24 26  1  0
 32 33  1  0
  4 35  1  0
  6 36  1  0
  6 37  1  0
  9 38  1  0
 10 39  1  0
 11 40  1  0
 11 41  1  0
 11 42  1  0
 12 43  1  0
 13 44  1  0
 13 45  1  0
 13 46  1  0
 14 47  1  0
 15 48  1  0
 15 49  1  0
 15 50  1  0
 18 51  1  0
 18 52  1  0
 18 53  1  0
 20 54  1  0
 22 55  1  0
 25 56  1  0
 27 57  1  0
 27 58  1  0
 27 59  1  0
 29 60  1  0
 30 61  1  0
 31 62  1  0
 32 63  1  0
M  END
> <Name>
CHEMBL1668065

> <IC50 nM>
12.59

> <Molecule_ChEMBL_ID>
CHEMBL1668065

> <Smiles>
Cc1cc(C)c(S(=O)(=O)NC[C@@H](C)Nc2cc(C)cc3c2cnn3-c2ccc(F)cc2)c(C)c1

$$$$
CHEMBL1762203
  SciTegic08162514323D

 54 57  0  0  0  0            999 V2000
   -7.9080    0.3790   -1.6520 Cl  0  0
   -6.3130   -0.1780   -1.3460 C   0  0
   -5.5280    0.0650   -0.2680 C   0  0
   -5.5510   -0.9960   -2.1990 C   0  0
   -4.3030   -0.5490   -0.3710 C   0  0
   -5.8640    0.8460    0.8690 C   0  0
   -4.2970   -1.2260   -1.5840 N   0  0
   -3.3280   -0.4240    0.6540 C   0  0
   -4.9050    0.9880    1.9060 C   0  0
   -2.0280   -1.0760    0.5430 C   0  0
   -3.6370    0.3560    1.8010 C   0  0
   -0.8440   -0.2950    0.4770 C   0  0
   -1.9570   -2.4900    0.5060 C   0  0
   -0.9490    1.0370    0.5230 F   0  0
    0.4320   -0.9350    0.3710 C   0  0
   -3.0590   -3.2380    0.5800 F   0  0
   -0.7030   -3.1250    0.3890 C   0  0
    0.4920   -2.3650    0.3010 C   0  0
    1.7230   -0.1500    0.3400 C   0  0
    1.6720   -3.0210    0.1450 N   0  0
    1.7710    1.1370    0.2560 N   0  0
    3.0160   -0.9410    0.4240 C   0  0
    2.9220   -2.3220   -0.2540 C   0  0
    3.0060    1.8710    0.2360 O   0  0
    4.1290   -3.1740    0.1520 C   0  0
    2.9240   -2.1620   -1.7790 C   0  0
    2.6190    3.2350    0.1410 C   0  0
    1.7990    3.6210    1.3710 C   0  0
    1.8570    3.4570   -1.1680 C   0  0
    4.0080    3.8730    0.1310 C   0  0
   -5.8320   -1.4020   -3.1620 H   0  0
   -6.8240    1.3300    0.9610 H   0  0
   -3.5550   -1.7710   -1.9570 H   0  0
   -5.1390    1.5780    2.7770 H   0  0
   -2.9180    0.4750    2.6000 H   0  0
   -0.6720   -4.2050    0.3590 H   0  0
    1.7090   -4.0160    0.2660 H   0  0
    3.8500   -0.3890   -0.0140 H   0  0
    3.2660   -1.0660    1.4810 H   0  0
    4.1640   -3.3420    1.2290 H   0  0
    5.0600   -2.6870   -0.1390 H   0  0
    4.0960   -4.1480   -0.3360 H   0  0
    2.0740   -1.5760   -2.1270 H   0  0
    2.8810   -3.1350   -2.2700 H   0  0
    3.8340   -1.6600   -2.1130 H   0  0
    2.2440    3.2380    2.2910 H   0  0
    0.7870    3.2250    1.3010 H   0  0
    1.7260    4.7050    1.4630 H   0  0
    2.3420    2.9590   -2.0080 H   0  0
    1.7970    4.5200   -1.4020 H   0  0
    0.8420    3.0720   -1.0920 H   0  0
    4.5960    3.5060   -0.7110 H   0  0
    3.9320    4.9590    0.0630 H   0  0
    4.5490    3.6330    1.0450 H   0  0
  1  2  1  0
  2  3  1  0
  2  4  2  0
  3  5  1  0
  3  6  2  0
  4  7  1  0
  8  5  2  0
  6  9  1  0
  8 10  1  0
  8 11  1  0
 10 12  2  0
 10 13  1  0
 12 14  1  0
 12 15  1  0
 13 16  1  0
 13 17  2  0
 15 18  2  0
 15 19  1  0
 18 20  1  0
 19 21  2  0
 19 22  1  0
 20 23  1  0
 21 24  1  0
 23 25  1  0
 23 26  1  0
 24 27  1  0
 27 28  1  0
 27 29  1  0
 27 30  1  0
  5  7  1  0
  9 11  2  0
 17 18  1  0
 22 23  1  0
  4 31  1  0
  6 32  1  0
  7 33  1  0
  9 34  1  0
 11 35  1  0
 17 36  1  0
 20 37  1  0
 22 38  1  0
 22 39  1  0
 25 40  1  0
 25 41  1  0
 25 42  1  0
 26 43  1  0
 26 44  1  0
 26 45  1  0
 28 46  1  0
 28 47  1  0
 28 48  1  0
 29 49  1  0
 29 50  1  0
 29 51  1  0
 30 52  1  0
 30 53  1  0
 30 54  1  0
M  END
> <Name>
CHEMBL1762203

> <IC50 nM>
19

> <Molecule_ChEMBL_ID>
CHEMBL1762203

> <Smiles>
CC1(C)C/C(=N\OC(C)(C)C)c2c(cc(F)c(-c3cccc4c(Cl)c[nH]c34)c2F)N1

$$$$
CHEMBL4452917
  SciTegic08162514323D

 78 82  0  0  1  0            999 V2000
   -5.9670   -0.9690   -3.0200 O   0  0
   -4.9360   -0.8590   -2.4000 C   0  0
   -4.3550   -2.0160   -1.6970 C   0  0
   -4.2010    0.4530   -2.3280 C   0  0
   -3.1460   -1.9790   -1.0920 C   0  0
   -2.6870    0.2170   -2.2790 C   0  0
   -2.2520   -0.7400   -1.1410 C   0  0  2  0  0  0
   -2.6560   -3.1800   -0.3090 C   0  0
   -0.7480   -1.1310   -1.3440 C   0  0  1  0  0  0
   -2.4860   -0.0590    0.2190 C   0  0
   -1.1840   -3.5060   -0.5640 C   0  0
    0.2580    0.0660   -1.3960 C   0  0  1  0  0  0
   -0.2910   -2.2680   -0.3910 C   0  0  1  0  0  0
    0.1560    1.0020   -0.2360 C   0  0
    1.7170   -0.4060   -1.6000 C   0  0
    1.1620   -2.6560   -0.7210 C   0  0  1  0  0  0
    0.3320    2.3830   -0.4300 C   0  0
   -0.1170    0.5020    1.0490 C   0  0
    2.1370   -1.4800   -0.5740 C   0  0  1  0  0  0
    1.8110   -3.7250    0.1640 C   0  0
    0.2360    3.2660    0.6600 C   0  0
   -0.2130    1.3830    2.1410 C   0  0
    3.5020   -2.1930   -0.7730 C   0  0  2  0  0  0
    2.0740   -0.9360    0.8670 C   0  0
    3.3220   -3.4730    0.0720 C   0  0
   -0.0370    2.7680    1.9470 C   0  0
    4.5760   -1.4140   -0.2770 O   0  0
    3.7930   -2.5180   -2.1800 C   0  0
   -0.1290    3.6250    3.0120 N   0  0
    4.0430   -2.7730   -3.3140 C   0  0
   -0.5780    5.0140    2.8260 C   0  0
    0.2230    3.1640    4.3610 C   0  0
    4.3590   -3.0740   -4.7070 C   0  0
   -1.5210    5.4380    3.9530 C   0  0
    0.6110    5.9570    2.6660 C   0  0
   -4.9340   -2.9280   -1.6640 H   0  0
   -4.4570    1.0720   -3.1870 H   0  0
   -4.5270    0.9940   -1.4390 H   0  0
   -2.1840    1.1800   -2.1840 H   0  0
   -2.3710   -0.1910   -3.2400 H   0  0
   -2.7970   -2.9750    0.7540 H   0  0
   -3.2660   -4.0590   -0.5290 H   0  0
   -0.6950   -1.5700   -2.3440 H   0  0
   -3.5490    0.0410    0.4430 H   0  0
   -2.0490    0.9380    0.2310 H   0  0
   -2.0290   -0.6350    1.0240 H   0  0
   -0.8730   -4.2970    0.1150 H   0  0
   -1.0760   -3.9040   -1.5740 H   0  0
    0.0080    0.6720   -2.2660 H   0  0
   -0.3570   -1.9260    0.6430 H   0  0
    2.4080    0.4360   -1.5660 H   0  0
    1.7930   -0.8070   -2.6110 H   0  0
    1.1820   -3.0160   -1.7420 H   0  0
    0.5430    2.7720   -1.4160 H   0  0
   -0.2540   -0.5590    1.2030 H   0  0
    1.4810   -3.6170    1.1880 H   0  0
    1.5470   -4.7230   -0.1560 H   0  0
    0.3770    4.3240    0.4920 H   0  0
   -0.4240    0.9800    3.1210 H   0  0
    2.9880   -1.1500    1.4220 H   0  0
    1.2420   -1.3810    1.4120 H   0  0
    1.9320    0.1450    0.8650 H   0  0
    3.7110   -3.3420    1.0740 H   0  0
    3.8440   -4.3300   -0.3380 H   0  0
    5.3850   -1.9390   -0.3870 H   0  0
   -1.1210    4.9140    1.8870 H   0  0
    0.6430    2.1600    4.4060 H   0  0
   -0.6700    3.1820    4.9900 H   0  0
    0.9490    3.8500    4.7970 H   0  0
    5.3300   -3.5680   -4.7770 H   0  0
    4.3950   -2.1560   -5.2930 H   0  0
    3.6020   -3.7320   -5.1350 H   0  0
   -2.3550    4.7460    4.0680 H   0  0
   -1.9360    6.4280    3.7560 H   0  0
   -0.9920    5.4810    4.9040 H   0  0
    1.2810    5.6370    1.8670 H   0  0
    1.1930    6.0060    3.5880 H   0  0
    0.2730    6.9670    2.4320 H   0  0
  1  2  2  0
  2  3  1  0
  2  4  1  0
  3  5  2  0
  4  6  1  0
  5  7  1  0
  5  8  1  0
  7  9  1  0
  7 10  1  0
  8 11  1  0
  9 12  1  0
  9 13  1  0
 12 14  1  0
 12 15  1  0
 13 16  1  0
 14 17  2  0
 14 18  1  0
 15 19  1  0
 16 20  1  0
 17 21  1  0
 18 22  2  0
 19 23  1  0
 19 24  1  0
 20 25  1  0
 21 26  2  0
 23 27  1  0
 23 28  1  0
 26 29  1  0
 28 30  3  0
 29 31  1  0
 29 32  1  0
 30 33  1  0
 31 34  1  0
 31 35  1  0
  6  7  1  0
 13 11  1  0
 16 19  1  0
 22 26  1  0
 23 25  1  0
  3 36  1  0
  4 37  1  0
  4 38  1  0
  6 39  1  0
  6 40  1  0
  8 41  1  0
  8 42  1  0
  9 43  1  0
 10 44  1  0
 10 45  1  0
 10 46  1  0
 11 47  1  0
 11 48  1  0
 12 49  1  0
 13 50  1  0
 15 51  1  0
 15 52  1  0
 16 53  1  0
 17 54  1  0
 18 55  1  0
 20 56  1  0
 20 57  1  0
 21 58  1  0
 22 59  1  0
 24 60  1  0
 24 61  1  0
 24 62  1  0
 25 63  1  0
 25 64  1  0
 27 65  1  0
 31 66  1  0
 32 67  1  0
 32 68  1  0
 32 69  1  0
 33 70  1  0
 33 71  1  0
 33 72  1  0
 34 73  1  0
 34 74  1  0
 34 75  1  0
 35 76  1  0
 35 77  1  0
 35 78  1  0
M  END
> <Name>
CHEMBL4452917

> <IC50 nM>
20.6

> <Molecule_ChEMBL_ID>
CHEMBL4452917

> <Smiles>
CC#C[C@]1(O)CC[C@H]2[C@@H]3CCC4=CC(=O)CC[C@]4(C)[C@H]3[C@@H](c3ccc(N(C)C(C)C)cc3)C[C@@]21C

$$$$
CHEMBL4476493
  SciTegic08162514323D

 75 79  0  0  1  0            999 V2000
   -5.8160   -2.3670   -2.5000 O   0  0
   -4.8790   -1.9180   -1.8890 C   0  0
   -4.0080   -2.7990   -1.0960 C   0  0
   -4.5620   -0.4430   -1.9140 C   0  0
   -2.8730   -2.3690   -0.4980 C   0  0
   -3.0530   -0.2070   -1.8320 C   0  0
   -2.3790   -0.9300   -0.6370 C   0  0  2  0  0  0
   -2.0780   -3.3170    0.3710 C   0  0
   -0.8260   -0.8830   -0.8220 C   0  0  1  0  0  0
   -2.8200   -0.2640    0.6780 C   0  0
   -0.5740   -3.2360    0.1210 C   0  0
   -0.2070    0.5490   -0.9240 C   0  0  1  0  0  0
   -0.0640   -1.7870    0.1820 C   0  0  1  0  0  0
   -0.5490    1.4530    0.2270 C   0  0
    1.3260    0.5000   -1.1480 C   0  0
    1.4360   -1.7770   -0.1780 C   0  0  1  0  0  0
   -0.6330    2.8440    0.0290 C   0  0
   -0.7870    0.9100    1.5020 C   0  0
    2.0490   -0.3690   -0.0980 C   0  0  1  0  0  0
    2.3540   -2.5860    0.7360 C   0  0
   -0.9530    3.6890    1.1040 C   0  0
   -1.1070    1.7560    2.5780 C   0  0
    3.5490   -0.6970   -0.2910 C   0  0  2  0  0  0
    1.8520    0.1850    1.3280 C   0  0
    3.7440   -1.9710    0.5550 C   0  0
   -1.1910    3.1480    2.3830 C   0  0
    4.3750    0.3530    0.1840 O   0  0
    3.9160   -0.9140   -1.6970 C   0  0
   -1.5040    3.9730    3.4320 N   0  0
    4.2130   -1.0780   -2.8380 C   0  0
   -1.7560    3.4280    4.7740 C   0  0
   -1.5900    5.4240    3.2230 C   0  0
    4.5820   -1.2750   -4.2360 C   0  0
    5.4690   -0.1150   -4.7130 C   0  0
   -4.3030   -3.8300   -0.9840 H   0  0
   -4.9610    0.0060   -2.8260 H   0  0
   -5.0620    0.0430   -1.0800 H   0  0
   -2.8650    0.8630   -1.7810 H   0  0
   -2.5980   -0.5430   -2.7660 H   0  0
   -2.2770   -3.0780    1.4160 H   0  0
   -2.4100   -4.3460    0.2290 H   0  0
   -0.6370   -1.3300   -1.8050 H   0  0
   -3.8940   -0.3590    0.8400 H   0  0
   -2.5780    0.7990    0.6720 H   0  0
   -2.3140   -0.7170    1.5290 H   0  0
   -0.3380   -3.6820   -0.8400 H   0  0
   -0.0580   -3.8400    0.8650 H   0  0
   -0.6310    1.0450   -1.7990 H   0  0
   -0.2110   -1.4060    1.1900 H   0  0
    1.4940    0.0960   -2.1500 H   0  0
    1.7540    1.5080   -1.1700 H   0  0
    1.5450   -2.1620   -1.1840 H   0  0
   -0.4510    3.2660   -0.9490 H   0  0
   -0.7250   -0.1560    1.6580 H   0  0
    2.0330   -2.4810    1.7680 H   0  0
    2.3360   -3.6370    0.5000 H   0  0
   -1.0120    4.7560    0.9340 H   0  0
   -1.2870    1.3200    3.5530 H   0  0
    2.7830    0.1950    1.8930 H   0  0
    1.1330   -0.4200    1.8810 H   0  0
    1.4730    1.2070    1.2950 H   0  0
    4.4200   -2.6740    0.0980 H   0  0
    4.1540   -1.7480    1.5290 H   0  0
    5.2950    0.0640    0.0740 H   0  0
   -1.6740    2.3440    4.8500 H   0  0
   -2.7600    3.7090    5.0900 H   0  0
   -1.0490    3.8650    5.4770 H   0  0
   -1.3910    5.7540    2.2030 H   0  0
   -0.8770    5.9240    3.8810 H   0  0
   -2.5880    5.7660    3.4940 H   0  0
    3.6800   -1.3260   -4.8440 H   0  0
    5.1080   -2.2230   -4.3550 H   0  0
    5.7540   -0.2500   -5.7560 H   0  0
    4.9470    0.8360   -4.6050 H   0  0
    6.3830   -0.0630   -4.1210 H   0  0
  1  2  2  0
  2  3  1  0
  2  4  1  0
  3  5  2  0
  4  6  1  0
  5  7  1  0
  5  8  1  0
  7  9  1  0
  7 10  1  0
  8 11  1  0
  9 12  1  0
  9 13  1  0
 12 14  1  0
 12 15  1  0
 13 16  1  0
 14 17  2  0
 14 18  1  0
 15 19  1  0
 16 20  1  0
 17 21  1  0
 18 22  2  0
 19 23  1  0
 19 24  1  0
 20 25  1  0
 21 26  2  0
 23 27  1  0
 23 28  1  0
 26 29  1  0
 28 30  3  0
 29 31  1  0
 29 32  1  0
 30 33  1  0
 33 34  1  0
  6  7  1  0
 13 11  1  0
 16 19  1  0
 22 26  1  0
 23 25  1  0
  3 35  1  0
  4 36  1  0
  4 37  1  0
  6 38  1  0
  6 39  1  0
  8 40  1  0
  8 41  1  0
  9 42  1  0
 10 43  1  0
 10 44  1  0
 10 45  1  0
 11 46  1  0
 11 47  1  0
 12 48  1  0
 13 49  1  0
 15 50  1  0
 15 51  1  0
 16 52  1  0
 17 53  1  0
 18 54  1  0
 20 55  1  0
 20 56  1  0
 21 57  1  0
 22 58  1  0
 24 59  1  0
 24 60  1  0
 24 61  1  0
 25 62  1  0
 25 63  1  0
 27 64  1  0
 31 65  1  0
 31 66  1  0
 31 67  1  0
 32 68  1  0
 32 69  1  0
 32 70  1  0
 33 71  1  0
 33 72  1  0
 34 73  1  0
 34 74  1  0
 34 75  1  0
M  END
> <Name>
CHEMBL4476493

> <IC50 nM>
73.7

> <Molecule_ChEMBL_ID>
CHEMBL4476493

> <Smiles>
CCC#C[C@]1(O)CC[C@H]2[C@@H]3CCC4=CC(=O)CC[C@]4(C)[C@H]3[C@@H](c3ccc(N(C)C)cc3)C[C@@]21C

$$$$
CHEMBL4077898
  SciTegic08162514323D

 76 81  0  0  1  0            999 V2000
    5.5160   -3.8740    3.2490 F   0  0
    4.7350   -4.3770    4.2580 C   0  0
    5.3900   -4.2400    5.4550 F   0  0
    3.4080   -3.6680    4.2990 C   0  0
    4.4560   -5.8570    3.9960 C   0  0
    2.3740   -4.2740    4.1390 O   0  0
    3.3910   -2.3210    4.5220 N   0  0
    2.1030   -1.6130    4.5670 C   0  0  2  0  0  0
    1.6730   -1.1660    3.1690 C   0  0  1  0  0  0
    2.1470   -0.4590    5.5680 C   0  0
    1.6090   -2.2950    2.3100 O   0  0
    0.3650   -0.4930    3.1940 C   0  0
    1.2300   -2.0980    1.0400 C   0  0
   -0.8180   -1.2530    3.3550 C   0  0
    0.2910    0.9140    3.0550 C   0  0
    0.7110   -3.1810    0.2810 C   0  0
    1.3480   -0.8070    0.4580 C   0  0
   -2.0760   -0.6060    3.3740 C   0  0
   -0.9650    1.5640    3.0890 C   0  0
    0.3130   -2.9600   -1.0630 C   0  0
    0.9500   -0.5920   -0.8840 C   0  0
   -3.2070   -1.3310    3.4970 O   0  0
   -2.1480    0.8100    3.2650 C   0  0
    0.4390   -1.6950   -1.6060 C   0  0
   -0.2010   -3.9660   -1.8640 C   0  0
   -4.4730   -0.7180    3.2240 C   0  0
   -3.3440    1.4300    3.3280 O   0  0
   -0.0280   -1.8760   -2.8680 N   0  0
   -0.3930   -3.1980   -2.9940 N   0  0
   -4.4900    0.7090    3.7980 C   0  0
   -0.1260   -0.9350   -3.8430 C   0  0
   -0.5880    0.3600   -3.5340 C   0  0
    0.2340   -1.2520   -5.1670 C   0  0
   -0.6880    1.3320   -4.5460 C   0  0
    0.1320   -0.2790   -6.1760 C   0  0
   -1.1780    2.7050   -4.2180 C   0  0
   -0.3280    1.0120   -5.8670 C   0  0
   -1.8740    2.9020   -3.2500 O   0  0
   -0.8240    3.7410   -5.0350 N   0  0
   -1.3420    5.0940   -4.7550 C   0  0  1  0  0  0
   -0.7490    6.1770   -5.6520 C   0  0
   -2.8540    5.2560   -4.9960 C   0  0
   -1.7150    7.1930   -5.5660 O   0  0
   -3.0000    6.6280   -5.6600 C   0  0
    5.3740   -6.4420    3.9520 H   0  0
    3.9310   -5.9890    3.0500 H   0  0
    3.8310   -6.2770    4.7850 H   0  0
    4.2470   -1.8210    4.6520 H   0  0
    1.3510   -2.2660    5.0110 H   0  0
    2.4270   -0.4820    2.7780 H   0  0
    2.4830   -0.8080    6.5450 H   0  0
    2.8190    0.3270    5.2210 H   0  0
    1.1570   -0.0190    5.6940 H   0  0
   -0.7660   -2.3270    3.4590 H   0  0
    1.1910    1.4960    2.9240 H   0  0
    0.6250   -4.1600    0.7330 H   0  0
    1.7420    0.0130    1.0390 H   0  0
   -1.0170    2.6380    2.9850 H   0  0
    1.0350    0.3850   -1.3390 H   0  0
   -0.4070   -5.0180   -1.7120 H   0  0
   -4.6140   -0.6900    2.1430 H   0  0
   -5.2630   -1.3370    3.6490 H   0  0
   -5.3890    1.2540    3.5120 H   0  0
   -4.4510    0.6780    4.8880 H   0  0
   -0.8670    0.6160   -2.5210 H   0  0
    0.5900   -2.2400   -5.4240 H   0  0
    0.4090   -0.5240   -7.1910 H   0  0
   -0.4020    1.7530   -6.6490 H   0  0
   -0.2180    3.5760   -5.8130 H   0  0
   -1.1230    5.3290   -3.7220 H   0  0
   -0.6730    5.8610   -6.6840 H   0  0
    0.2120    6.5390   -5.3190 H   0  0
   -3.2610    4.4890   -5.6420 H   0  0
   -3.3960    5.2120   -4.0610 H   0  0
   -3.7280    7.2690   -5.1850 H   0  0
   -3.2510    6.5230   -6.7080 H   0  0
  1  2  1  0
  2  3  1  0
  2  4  1  0
  2  5  1  0
  4  6  2  0
  4  7  1  0
  7  8  1  0
  8  9  1  0
  8 10  1  0
  9 11  1  0
  9 12  1  0
 11 13  1  0
 12 14  2  0
 12 15  1  0
 13 16  2  0
 13 17  1  0
 14 18  1  0
 15 19  2  0
 16 20  1  0
 17 21  2  0
 18 22  1  0
 18 23  2  0
 20 24  2  0
 20 25  1  0
 22 26  1  0
 23 27  1  0
 24 28  1  0
 25 29  2  0
 26 30  1  0
 28 31  1  0
 31 32  2  0
 31 33  1  0
 32 34  1  0
 33 35  2  0
 34 36  1  0
 34 37  2  0
 36 38  2  0
 36 39  1  0
 40 39  1  0
 40 41  1  0
 40 42  1  0
 41 43  1  0
 42 44  1  0
 19 23  1  0
 21 24  1  0
 27 30  1  0
 28 29  1  0
 35 37  1  0
 43 44  1  0
  5 45  1  0
  5 46  1  0
  5 47  1  0
  7 48  1  0
  8 49  1  0
  9 50  1  0
 10 51  1  0
 10 52  1  0
 10 53  1  0
 14 54  1  0
 15 55  1  0
 16 56  1  0
 17 57  1  0
 19 58  1  0
 21 59  1  0
 25 60  1  0
 26 61  1  0
 26 62  1  0
 30 63  1  0
 30 64  1  0
 32 65  1  0
 33 66  1  0
 35 67  1  0
 37 68  1  0
 39 69  1  0
 40 70  1  0
 41 71  1  0
 41 72  1  0
 42 73  1  0
 42 74  1  0
 44 75  1  0
 44 76  1  0
M  END
> <Name>
CHEMBL4077898

> <IC50 nM>
12.7

> <Molecule_ChEMBL_ID>
CHEMBL4077898

> <Smiles>
C[C@H](NC(=O)C(C)(F)F)[C@@H](Oc1ccc2c(cnn2-c2cccc(C(=O)N[C@@H]3CCOC3)c2)c1)c1ccc2c(c1)OCCO2

$$$$
CHEMBL4077728
  SciTegic08162514323D

 58 61  0  0  0  0            999 V2000
    1.1900    2.2520    1.9140 S   0  0
    2.3420    2.9730    2.4300 O   0  0
   -0.0780    2.8110    2.3500 O   0  0
    1.2360    2.3560    0.2970 N   0  0
    1.2830    0.6190    2.4610 C   0  0
    0.0820    2.2400   -0.4290 C   0  0
    2.5180    2.5720   -0.3880 C   0  0
    2.4200   -0.1540    2.1700 C   0  0
    0.2210    0.0640    3.1960 C   0  0
   -0.0450    2.9020   -1.6640 C   0  0
   -0.9820    1.4570    0.0570 C   0  0
    2.6500    1.7070   -1.5900 C   0  0
    2.4960   -1.4840    2.6170 C   0  0
    0.2950   -1.2660    3.6410 C   0  0
   -1.2300    2.7830   -2.4080 C   0  0
   -2.1680    1.3400   -0.6910 C   0  0
    2.8520    2.2850   -2.8550 C   0  0
    2.5720    0.3090   -1.4610 C   0  0
    1.4340   -2.0450    3.3540 C   0  0
   -2.2950    2.0020   -1.9240 C   0  0
    2.9770    1.4650   -3.9920 C   0  0
    2.6950   -0.5100   -2.5970 C   0  0
    1.5060   -3.3420    3.7870 N   0  0
   -3.4060    1.8910   -2.6250 O   0  0
    2.8990    0.0680   -3.8630 C   0  0
    1.0510   -3.6720    5.0340 C   0  0
   -4.0230    0.7270   -2.6250 C   0  0
    0.5820   -2.8240    5.7560 O   0  0
    1.1450   -5.1060    5.4810 C   0  0
   -5.4280    0.6720   -2.6250 C   0  0
   -3.2790   -0.4670   -2.6250 C   0  0
   -6.0880   -0.5700   -2.6250 C   0  0
   -3.9370   -1.7090   -2.6250 C   0  0
   -5.3420   -1.7620   -2.6250 C   0  0
    3.3340    2.3610    0.3010 H   0  0
    2.5940    3.6190   -0.6850 H   0  0
    3.2340    0.2730    1.6060 H   0  0
   -0.6520    0.6600    3.4160 H   0  0
    0.7620    3.5100   -2.0540 H   0  0
   -0.9040    0.9400    1.0020 H   0  0
    3.3770   -2.0660    2.3850 H   0  0
   -0.5310   -1.6780    4.2050 H   0  0
   -1.3240    3.2950   -3.3550 H   0  0
   -2.9820    0.7380   -0.3140 H   0  0
    2.9120    3.3580   -2.9630 H   0  0
    2.4160   -0.1430   -0.4920 H   0  0
    3.1310    1.9100   -4.9630 H   0  0
    2.6350   -1.5840   -2.4980 H   0  0
    1.8930   -4.0470    3.1940 H   0  0
    2.9920   -0.5610   -4.7360 H   0  0
    0.7830   -5.1990    6.5040 H   0  0
    0.5840   -5.7440    4.7970 H   0  0
    2.1860   -5.4320    5.4630 H   0  0
   -6.0060    1.5840   -2.6250 H   0  0
   -2.1990   -0.4320   -2.6250 H   0  0
   -7.1660   -0.6090   -2.6250 H   0  0
   -3.3630   -2.6250   -2.6250 H   0  0
   -5.8480   -2.7150   -2.6250 H   0  0
  1  2  2  0
  1  3  2  0
  1  4  1  0
  1  5  1  0
  4  6  1  0
  4  7  1  0
  5  8  2  0
  5  9  1  0
  6 10  2  0
  6 11  1  0
  7 12  1  0
  8 13  1  0
  9 14  2  0
 10 15  1  0
 11 16  2  0
 12 17  2  0
 12 18  1  0
 13 19  2  0
 15 20  2  0
 17 21  1  0
 18 22  2  0
 19 23  1  0
 20 24  1  0
 21 25  2  0
 23 26  1  0
 24 27  1  0
 26 28  2  0
 26 29  1  0
 27 30  2  0
 27 31  1  0
 30 32  1  0
 31 33  2  0
 32 34  2  0
 14 19  1  0
 16 20  1  0
 22 25  1  0
 33 34  1  0
  7 35  1  0
  7 36  1  0
  8 37  1  0
  9 38  1  0
 10 39  1  0
 11 40  1  0
 13 41  1  0
 14 42  1  0
 15 43  1  0
 16 44  1  0
 17 45  1  0
 18 46  1  0
 21 47  1  0
 22 48  1  0
 23 49  1  0
 25 50  1  0
 29 51  1  0
 29 52  1  0
 29 53  1  0
 30 54  1  0
 31 55  1  0
 32 56  1  0
 33 57  1  0
 34 58  1  0
M  END
> <Name>
CHEMBL4077728

> <IC50 nM>
1970

> <Molecule_ChEMBL_ID>
CHEMBL4077728

> <Smiles>
CC(=O)Nc1ccc(S(=O)(=O)N(Cc2ccccc2)c2ccc(Oc3ccccc3)cc2)cc1

$$$$
CHEMBL4070835
  SciTegic08162514323D

 55 58  0  0  0  0            999 V2000
    0.0160   -0.8480   -3.0290 S   0  0
    0.6350    0.4510   -3.2270 O   0  0
    0.4020   -1.8260   -4.0330 O   0  0
    0.5040   -1.4080   -1.5900 N   0  0
   -1.6970   -0.6490   -3.1000 C   0  0
   -0.0530   -0.9160   -0.4390 C   0  0
    1.5450   -2.4430   -1.5200 C   0  0
   -2.2440    0.5040   -3.6880 C   0  0
   -2.5390   -1.6410   -2.5640 C   0  0
    0.0170   -1.6620    0.7520 C   0  0
   -0.6970    0.3360   -0.4450 C   0  0
    2.7260   -1.9790   -0.7460 C   0  0
   -3.6390    0.6700   -3.7460 C   0  0
   -3.9360   -1.4810   -2.6190 C   0  0
   -0.5530   -1.1560    1.9320 C   0  0
   -1.2680    0.8380    0.7360 C   0  0
    3.1930   -2.7290    0.3480 C   0  0
    3.3830   -0.7870   -1.1070 C   0  0
   -4.4810   -0.3260   -3.2110 C   0  0
   -1.1970    0.0940    1.9280 C   0  0
    4.3110   -2.2910    1.0800 C   0  0
    4.5000   -0.3480   -0.3770 C   0  0
   -5.9080   -0.1600   -3.2700 C   0  0
   -1.7330    0.5680    3.0350 O   0  0
    4.9650   -1.1000    0.7190 C   0  0
   -7.0590   -0.0250   -3.3160 N   0  0
   -1.6970    1.8690    3.2320 C   0  0
    6.1460   -0.6350    1.4920 C   0  0
   -2.7990    2.5270    3.8110 C   0  0
   -0.5610    2.6090    2.8650 C   0  0
   -2.7620    3.9160    4.0200 C   0  0
   -0.5220    3.9980    3.0740 C   0  0
   -1.6230    4.6520    3.6520 C   0  0
    1.1330   -3.3360   -1.0510 H   0  0
    1.8550   -2.7110   -2.5290 H   0  0
   -1.5960    1.2640   -4.0980 H   0  0
   -2.1170   -2.5260   -2.1130 H   0  0
    0.5100   -2.6250    0.7770 H   0  0
   -0.7620    0.9220   -1.3520 H   0  0
   -4.0490    1.5600   -4.2010 H   0  0
   -4.5720   -2.2500   -2.2070 H   0  0
   -0.4980   -1.7310    2.8460 H   0  0
   -1.7600    1.7990    0.7270 H   0  0
    2.6950   -3.6450    0.6310 H   0  0
    3.0290   -0.2050   -1.9470 H   0  0
    4.6620   -2.8710    1.9180 H   0  0
    4.9980    0.5680   -0.6580 H   0  0
    6.5210    0.2930    1.0590 H   0  0
    5.8750   -0.5290    2.5410 H   0  0
    6.9390   -1.3790    1.4260 H   0  0
   -3.6760    1.9650    4.0940 H   0  0
    0.2890    2.1110    2.4200 H   0  0
   -3.6100    4.4180    4.4650 H   0  0
    0.3530    4.5640    2.7910 H   0  0
   -1.5960    5.7210    3.8150 H   0  0
  1  2  2  0
  1  3  2  0
  1  4  1  0
  1  5  1  0
  4  6  1  0
  4  7  1  0
  5  8  2  0
  5  9  1  0
  6 10  2  0
  6 11  1  0
  7 12  1  0
  8 13  1  0
  9 14  2  0
 10 15  1  0
 11 16  2  0
 12 17  2  0
 12 18  1  0
 13 19  2  0
 15 20  2  0
 17 21  1  0
 18 22  2  0
 19 23  1  0
 20 24  1  0
 21 25  2  0
 23 26  3  0
 24 27  1  0
 25 28  1  0
 27 29  2  0
 27 30  1  0
 29 31  1  0
 30 32  2  0
 31 33  2  0
 14 19  1  0
 16 20  1  0
 22 25  1  0
 32 33  1  0
  7 34  1  0
  7 35  1  0
  8 36  1  0
  9 37  1  0
 10 38  1  0
 11 39  1  0
 13 40  1  0
 14 41  1  0
 15 42  1  0
 16 43  1  0
 17 44  1  0
 18 45  1  0
 21 46  1  0
 22 47  1  0
 28 48  1  0
 28 49  1  0
 28 50  1  0
 29 51  1  0
 30 52  1  0
 31 53  1  0
 32 54  1  0
 33 55  1  0
M  END
> <Name>
CHEMBL4070835

> <IC50 nM>
30000

> <Molecule_ChEMBL_ID>
CHEMBL4070835

> <Smiles>
Cc1ccc(CN(c2ccc(Oc3ccccc3)cc2)S(=O)(=O)c2ccc(C#N)cc2)cc1

$$$$
CHEMBL3263757
  SciTegic08162514323D

 57 60  0  0  1  0            999 V2000
    6.0250    2.8050   -3.2330 O   0  0
    5.8980    1.8400   -2.5160 C   0  0
    6.8830    0.9940   -2.2290 O   0  0
    4.5820    1.5240   -1.8810 C   0  0
    4.4390    0.3950   -1.0450 C   0  0
    3.4730    2.3540   -2.1170 C   0  0
    5.4690   -0.3940   -0.8110 O   0  0
    3.2380    0.1020   -0.4630 N   0  0
    2.2440    2.0370   -1.5120 C   0  0
    5.2700   -1.5160    0.0370 C   0  0
    2.1540    0.9010   -0.6860 C   0  0
    6.5820   -2.2910    0.1720 C   0  0
    0.8530    0.5570   -0.0370 C   0  0
   -0.2440    1.2130   -0.1540 N   0  0
    0.6430   -0.6330    0.8630 C   0  0
   -1.1800    0.7400    0.4710 N   0  0
   -0.8300   -0.4710    1.2110 C   0  0  1  0  0  0
   -2.4280    1.2990    0.4760 C   0  0
   -1.6410   -1.6930    0.7830 C   0  0
   -2.9400    1.8930   -0.6920 C   0  0
   -3.2070    1.2830    1.6560 C   0  0
   -3.0740   -1.6460    1.3030 C   0  0
   -1.1250   -2.9840    1.4140 C   0  0
   -4.2230    2.4750   -0.7010 C   0  0
   -4.4860    1.8600    1.6560 C   0  0
   -3.5330   -3.0740    1.0390 C   0  0
   -2.3280   -3.9300    1.4240 C   0  0
   -4.9980    2.4510    0.4920 C   0  0
   -4.7380    3.0940   -1.9510 C   0  0
   -6.3070    3.0410    0.4940 C   0  0
   -7.3690    3.5180    0.4980 N   0  0
    7.7600    1.1430   -2.6080 H   0  0
    3.5550    3.2230   -2.7540 H   0  0
    1.3830    2.6660   -1.6840 H   0  0
    4.9360   -1.1520    1.0100 H   0  0
    4.4940   -2.1420   -0.4000 H   0  0
    6.4530   -3.1520    0.8280 H   0  0
    6.9280   -2.6330   -0.8030 H   0  0
    7.3590   -1.6600    0.6000 H   0  0
    0.8590   -1.5530    0.3380 H   0  0
    1.2750   -0.5720    1.7380 H   0  0
   -0.9530   -0.2950    2.2710 H   0  0
   -1.6410   -1.7770   -0.2930 H   0  0
   -2.3520    1.9120   -1.6080 H   0  0
   -2.8280    0.8340    2.5550 H   0  0
   -3.6800   -0.9180    0.7830 H   0  0
   -3.1020   -1.4200    2.3610 H   0  0
   -0.7950   -2.8070    2.4280 H   0  0
   -0.2890   -3.3940    0.8650 H   0  0
   -5.0650    1.8380    2.5600 H   0  0
   -4.4200   -3.3300    1.6000 H   0  0
   -3.7600   -3.2010   -0.0120 H   0  0
   -2.4550   -4.3570    2.4080 H   0  0
   -2.2010   -4.7480    0.7280 H   0  0
   -5.7380    3.5160   -1.8630 H   0  0
   -4.7620    2.3460   -2.7440 H   0  0
   -4.0650    3.8910   -2.2660 H   0  0
  1  2  2  0
  2  3  1  0
  2  4  1  0
  4  5  2  0
  4  6  1  0
  5  7  1  0
  5  8  1  0
  6  9  2  0
  7 10  1  0
  8 11  2  0
 10 12  1  0
 11 13  1  0
 13 14  2  0
 13 15  1  0
 14 16  1  0
 15 17  1  0
 16 18  1  0
 17 19  1  0
 18 20  2  0
 18 21  1  0
 19 22  1  0
 19 23  1  0
 20 24  1  0
 21 25  2  0
 22 26  1  0
 23 27  1  0
 24 28  2  0
 24 29  1  0
 28 30  1  0
 30 31  3  0
  9 11  1  0
 16 17  1  0
 25 28  1  0
 26 27  1  0
  3 32  1  0
  6 33  1  0
  9 34  1  0
 10 35  1  0
 10 36  1  0
 12 37  1  0
 12 38  1  0
 12 39  1  0
 15 40  1  0
 15 41  1  0
 17 42  1  0
 19 43  1  0
 20 44  1  0
 21 45  1  0
 22 46  1  0
 22 47  1  0
 23 48  1  0
 23 49  1  0
 25 50  1  0
 26 51  1  0
 26 52  1  0
 27 53  1  0
 27 54  1  0
 29 55  1  0
 29 56  1  0
 29 57  1  0
M  END
> <Name>
CHEMBL3263757

> <IC50 nM>
10000

> <Molecule_ChEMBL_ID>
CHEMBL3263757

> <Smiles>
CCOc1nc(C2=NN(c3ccc(C#N)c(C)c3)[C@@H](C3CCCC3)C2)ccc1C(=O)O

$$$$
CHEMBL3263754
  SciTegic08162514323D

 53 56  0  0  1  0            999 V2000
   -2.8070   -0.1480    6.9400 O   0  0
   -3.2110   -0.7340    5.9630 C   0  0
   -4.3300   -1.4510    5.9420 O   0  0
   -2.4590   -0.6890    4.6720 C   0  0
   -1.2540    0.0410    4.5670 C   0  0
   -2.9510   -1.3770    3.5490 C   0  0
   -0.7770    0.6920    5.6100 O   0  0
   -0.5630    0.0840    3.3890 N   0  0
   -2.2270   -1.3220    2.3460 C   0  0
    0.4490    1.3890    5.4550 C   0  0
   -1.0310   -0.5800    2.2930 C   0  0
   -0.2560   -0.5160    1.0200 C   0  0
   -0.5720   -1.0880   -0.0880 N   0  0
    1.0350    0.2460    0.8460 C   0  0
    0.2190   -0.8910   -0.9960 N   0  0
    1.3480   -0.0470   -0.6130 C   0  0  1  0  0  0
    0.0590   -1.4220   -2.2480 C   0  0
    1.4410    1.2380   -1.4300 C   0  0
    1.1370   -1.4320   -3.0900 N   0  0
   -1.1930   -1.9450   -2.6520 C   0  0
    2.5430    2.1580   -0.9140 C   0  0
    0.1700    2.0900   -1.3400 C   0  0
    1.0200   -1.9550   -4.3540 C   0  0
   -1.3360   -2.4840   -3.9370 C   0  0
    2.1350    3.4880   -1.5330 C   0  0
    0.6460    3.5390   -1.2150 C   0  0
   -0.2230   -2.4920   -4.7970 C   0  0
    2.2230   -1.9410   -5.2300 C   0  0
   -0.3200   -3.0370   -6.1250 C   0  0
   -0.4040   -3.4770   -7.1950 N   0  0
   -4.8630   -1.5210    6.7420 H   0  0
   -3.8690   -1.9430    3.6040 H   0  0
   -2.5920   -1.8460    1.4750 H   0  0
    0.6540    1.9280    6.3810 H   0  0
    1.2090    0.6780    5.1350 H   0  0
    0.3260    2.1250    4.6600 H   0  0
    0.8870    1.2990    1.0510 H   0  0
    1.7990   -0.1350    1.5100 H   0  0
    2.2680   -0.6090   -0.6990 H   0  0
    1.6370    0.9960   -2.4650 H   0  0
   -2.0310   -1.9300   -1.9780 H   0  0
    3.5250    1.8420   -1.2300 H   0  0
    2.5370    2.2210    0.1660 H   0  0
   -0.4360    1.8260   -0.4840 H   0  0
   -0.4410    1.9510   -2.2190 H   0  0
   -2.2770   -2.8810   -4.2500 H   0  0
    2.3010    3.4810   -2.6020 H   0  0
    2.6740    4.3260   -1.1130 H   0  0
    0.1110    4.2030   -1.8770 H   0  0
    0.4940    3.8910   -0.2050 H   0  0
    3.1070   -1.5020   -4.7710 H   0  0
    2.0020   -1.3790   -6.1390 H   0  0
    2.4710   -2.9610   -5.5230 H   0  0
  1  2  2  0
  2  3  1  0
  2  4  1  0
  4  5  2  0
  4  6  1  0
  5  7  1  0
  5  8  1  0
  6  9  2  0
  7 10  1  0
  8 11  2  0
 11 12  1  0
 12 13  2  0
 12 14  1  0
 13 15  1  0
 14 16  1  0
 15 17  1  0
 16 18  1  0
 17 19  2  0
 17 20  1  0
 18 21  1  0
 18 22  1  0
 19 23  1  0
 20 24  2  0
 21 25  1  0
 22 26  1  0
 23 27  2  0
 23 28  1  0
 27 29  1  0
 29 30  3  0
  9 11  1  0
 15 16  1  0
 24 27  1  0
 25 26  1  0
  3 31  1  0
  6 32  1  0
  9 33  1  0
 10 34  1  0
 10 35  1  0
 10 36  1  0
 14 37  1  0
 14 38  1  0
 16 39  1  0
 18 40  1  0
 20 41  1  0
 21 42  1  0
 21 43  1  0
 22 44  1  0
 22 45  1  0
 24 46  1  0
 25 47  1  0
 25 48  1  0
 26 49  1  0
 26 50  1  0
 28 51  1  0
 28 52  1  0
 28 53  1  0
M  END
> <Name>
CHEMBL3263754

> <IC50 nM>
6800

> <Molecule_ChEMBL_ID>
CHEMBL3263754

> <Smiles>
COc1nc(C2=NN(c3ccc(C#N)c(C)n3)[C@@H](C3CCCC3)C2)ccc1C(=O)O

$$$$
CHEMBL1911663
  SciTegic08162514323D

 60 63  0  0  1  0            999 V2000
   -5.2560    0.5160    2.5450 S   0  0
   -5.6470   -0.8280    2.9340 O   0  0
   -6.3630    1.4550    2.5330 O   0  0
   -4.5920    0.4470    0.9690 C   0  0
   -4.0080    1.1050    3.6820 C   0  0
   -3.1970    0.4840    0.7810 C   0  0
   -5.4380    0.3510   -0.1560 C   0  0
   -2.6680    0.4220   -0.5270 C   0  0
   -4.9020    0.2930   -1.4670 C   0  0
   -3.5140    0.3240   -1.6680 C   0  0
   -1.2090    0.4610   -0.7170 C   0  0
   -5.5840    0.1950   -2.8070 C   0  0
   -3.1890    0.2540   -2.9570 O   0  0
   -0.4750    0.6350    0.6130 C   0  0
   -0.8050    1.5060   -1.7560 C   0  0
   -1.1290   -0.9690   -1.2540 C   0  0
   -4.3670    0.1540   -3.7770 C   0  0
    1.0410    0.4980    0.4710 C   0  0  1  0  0  0
    1.3890    0.7950   -0.8630 O   0  0
    1.6620    1.5640    1.3730 C   0  0
    1.5410   -0.9100    0.7910 C   0  0
    2.9940    1.6930    1.0800 F   0  0
    1.5180    1.1910    2.6860 F   0  0
    1.0290    2.7640    1.1680 F   0  0
    3.0290   -1.0330    0.5470 C   0  0
    4.0000   -0.8320    1.5610 N   0  0
    3.6950   -1.3520   -0.6520 C   0  0
    5.2400   -1.0270    0.9730 C   0  0
    5.0100   -1.3340   -0.3440 C   0  0
    6.5510   -0.9590    1.5000 C   0  0
    6.0780   -1.5960   -1.2380 C   0  0
    7.6370   -1.2170    0.6230 C   0  0
    7.4080   -1.5350   -0.7440 C   0  0
    8.9850   -1.1560    1.1250 C   0  0
   10.0700   -1.1080    1.5310 N   0  0
   -3.2540    0.3650    3.9470 H   0  0
   -4.4860    1.4390    4.6040 H   0  0
   -3.4940    1.9630    3.2460 H   0  0
   -2.5390    0.5590    1.6350 H   0  0
   -6.5100    0.3240   -0.0200 H   0  0
   -6.2090    1.0600   -2.9790 H   0  0
   -6.1880   -0.6990   -2.8670 H   0  0
   -0.8550   -0.0650    1.3570 H   0  0
   -0.7340    1.5860    1.0740 H   0  0
   -1.6720    1.9630   -2.2320 H   0  0
   -0.1950    1.0530   -2.5390 H   0  0
   -0.2170    2.3010   -1.2950 H   0  0
   -1.7810   -1.0940   -2.1170 H   0  0
   -0.1050   -1.2150   -1.5430 H   0  0
   -1.4410   -1.6860   -0.4940 H   0  0
   -4.3260   -0.7740   -4.3300 H   0  0
   -4.3770    0.9760   -4.4790 H   0  0
    1.6170   -0.0430   -1.2930 H   0  0
    1.0120   -1.6520    0.1930 H   0  0
    1.3200   -1.1720    1.8260 H   0  0
    3.8200   -0.5980    2.5100 H   0  0
    3.2380   -1.5610   -1.6110 H   0  0
    6.7090   -0.7150    2.5430 H   0  0
    5.8990   -1.8360   -2.2770 H   0  0
    8.2330   -1.7310   -1.4140 H   0  0
  1  2  2  0
  1  3  2  0
  1  4  1  0
  1  5  1  0
  4  6  2  0
  4  7  1  0
  6  8  1  0
  7  9  2  0
  8 10  2  0
  8 11  1  0
  9 12  1  0
 10 13  1  0
 11 14  1  0
 11 15  1  0
 11 16  1  0
 12 17  1  0
 14 18  1  0
 18 19  1  0
 18 20  1  0
 18 21  1  0
 20 22  1  0
 20 23  1  0
 20 24  1  0
 21 25  1  0
 25 26  1  0
 25 27  2  0
 26 28  1  0
 27 29  1  0
 28 30  1  0
 29 31  1  0
 30 32  2  0
 31 33  2  0
 32 34  1  0
 34 35  3  0
  9 10  1  0
 13 17  1  0
 28 29  2  0
 32 33  1  0
  5 36  1  0
  5 37  1  0
  5 38  1  0
  6 39  1  0
  7 40  1  0
 12 41  1  0
 12 42  1  0
 14 43  1  0
 14 44  1  0
 15 45  1  0
 15 46  1  0
 15 47  1  0
 16 48  1  0
 16 49  1  0
 16 50  1  0
 17 51  1  0
 17 52  1  0
 19 53  1  0
 21 54  1  0
 21 55  1  0
 26 56  1  0
 27 57  1  0
 30 58  1  0
 31 59  1  0
 33 60  1  0
M  END
> <Name>
CHEMBL1911663

> <IC50 nM>
405

> <Molecule_ChEMBL_ID>
CHEMBL1911663

> <Smiles>
CC(C)(C[C@](O)(Cc1cc2ccc(C#N)cc2[nH]1)C(F)(F)F)c1cc(S(C)(=O)=O)cc2c1OCC2

$$$$
CHEMBL1917250
  SciTegic08162514323D

 80 86  0  0  1  0            999 V2000
   -3.4550   -2.0860    0.5270 S   0  0
   -5.0350   -1.7070    0.9940 C   0  0
   -2.9650   -0.6580   -0.3570 C   0  0
   -5.8890   -0.6290    0.8300 N   0  0
   -5.5020   -2.8360    1.7250 C   0  0
   -1.5530   -0.8360   -0.8520 C   0  0
   -7.1700   -0.6150    1.3480 C   0  0
   -6.8090   -2.8590    2.2730 C   0  0
   -1.2230   -1.8360   -1.4430 O   0  0
   -0.5640    0.2750   -0.5880 C   0  0  2  0  0  0
   -7.6560   -1.7400    2.0860 C   0  0
   -8.0160    0.5060    1.1600 C   0  0
   -0.4960    1.0680   -1.7680 O   0  0
    0.8480   -0.1950   -0.1900 C   0  0  2  0  0  0
   -0.9530    1.1820    0.5900 C   0  0
   -8.9690   -1.7330    2.6230 C   0  0
   -9.3260    0.5100    1.6950 C   0  0
   -1.6990    1.3460   -2.2640 C   0  0
    1.4470    1.1350    0.2790 C   0  0  1  0  0  0
    1.7340   -0.7230   -1.3300 C   0  0
    0.7210   -1.2030    0.9610 C   0  0
    0.3590    1.6850    1.1990 C   0  0
   -9.7990   -0.6060    2.4240 C   0  0
   -2.4820    2.1050   -1.7420 O   0  0
   -2.0490    0.6720   -3.5040 C   0  0
    2.8560    0.9650    0.8810 C   0  0  1  0  0  0
    3.2090   -0.8910   -0.8950 C   0  0  1  0  0  0
   -1.0740   -0.0310   -4.1470 O   0  0
   -3.2810    0.6390   -4.1620 C   0  0
    3.7950    0.3790   -0.2030 C   0  0  2  0  0  0
    3.3560    2.3480    1.3300 C   0  0
    3.3130   -2.0270   -0.0590 O   0  0
   -1.7150   -0.5270   -5.2460 C   0  0
   -3.0600   -0.1450   -5.2970 C   0  0
    5.2760    0.2560    0.2890 C   0  0  2  0  0  0
    4.7930    2.2970    1.8500 C   0  0
    5.7460    1.5660    0.9220 C   0  0
    6.1740   -0.1410   -0.9100 C   0  0
    5.4200   -0.7890    1.4040 C   0  0
    6.9770    2.0740    0.6950 C   0  0
    7.6740    0.0040   -0.6290 C   0  0
    7.9900    1.3850   -0.1210 C   0  0
    9.0470    1.9200   -0.3710 O   0  0
   -3.6370   -0.5040   -1.2010 H   0  0
   -3.0210    0.2110    0.2970 H   0  0
   -4.8670   -3.6990    1.8770 H   0  0
   -7.1390   -3.7290    2.8240 H   0  0
   -7.6740    1.3690    0.6070 H   0  0
   -1.5080    0.6310    1.3380 H   0  0
   -1.5840    1.9980    0.2690 H   0  0
   -9.3480   -2.5760    3.1820 H   0  0
   -9.9650    1.3670    1.5490 H   0  0
    1.5290    1.8050   -0.5660 H   0  0
    1.3340   -1.6600   -1.7190 H   0  0
    1.7070   -0.0240   -2.1680 H   0  0
   -0.0550   -0.9120    1.6720 H   0  0
    1.6600   -1.2850    1.5080 H   0  0
    0.4690   -2.1930    0.5800 H   0  0
    0.3950    2.7640    1.2520 H   0  0
    0.4770    1.3070    2.2050 H   0  0
  -10.8010   -0.5960    2.8320 H   0  0
    2.8170    0.2970    1.7420 H   0  0
    3.7970   -1.1230   -1.7830 H   0  0
   -4.2050    1.1130   -3.8590 H   0  0
    3.8150    1.1290   -0.9960 H   0  0
    2.7070    2.7540    2.1050 H   0  0
    3.3070    3.0450    0.4920 H   0  0
    3.1100   -2.8030   -0.6040 H   0  0
   -1.2250   -1.1450   -5.9860 H   0  0
   -3.7830   -0.4020   -6.0610 H   0  0
    5.1410    3.3140    2.0310 H   0  0
    4.8070    1.7950    2.8160 H   0  0
    5.9670   -1.1660   -1.2190 H   0  0
    5.9280    0.4860   -1.7700 H   0  0
    6.3240   -0.6090    1.9840 H   0  0
    4.5590   -0.7640    2.0700 H   0  0
    5.4870   -1.7930    0.9840 H   0  0
    7.2440    3.0250    1.1330 H   0  0
    7.9900   -0.7310    0.1110 H   0  0
    8.2440   -0.1950   -1.5370 H   0  0
  1  2  1  0
  1  3  1  0
  2  4  2  0
  2  5  1  0
  3  6  1  0
  4  7  1  0
  5  8  2  0
  6  9  2  0
  6 10  1  0
  7 11  1  0
  7 12  2  0
 10 13  1  0
 10 14  1  0
 10 15  1  0
 11 16  2  0
 12 17  1  0
 13 18  1  0
 14 19  1  0
 14 20  1  0
 14 21  1  0
 15 22  1  0
 16 23  1  0
 18 24  2  0
 18 25  1  0
 19 26  1  0
 20 27  1  0
 25 28  1  0
 25 29  2  0
 30 26  1  0
 26 31  1  0
 27 32  1  0
 28 33  1  0
 29 34  1  0
 30 35  1  0
 31 36  1  0
 35 37  1  0
 35 38  1  0
 35 39  1  0
 37 40  2  0
 38 41  1  0
 40 42  1  0
 42 43  2  0
  8 11  1  0
 17 23  2  0
 19 22  1  0
 27 30  1  0
 33 34  2  0
 36 37  1  0
 41 42  1  0
  3 44  1  0
  3 45  1  0
  5 46  1  0
  8 47  1  0
 12 48  1  0
 15 49  1  0
 15 50  1  0
 16 51  1  0
 17 52  1  0
 19 53  1  0
 20 54  1  0
 20 55  1  0
 21 56  1  0
 21 57  1  0
 21 58  1  0
 22 59  1  0
 22 60  1  0
 23 61  1  0
 26 62  1  0
 27 63  1  0
 29 64  1  0
 30 65  1  0
 31 66  1  0
 31 67  1  0
 32 68  1  0
 33 69  1  0
 34 70  1  0
 36 71  1  0
 36 72  1  0
 38 73  1  0
 38 74  1  0
 39 75  1  0
 39 76  1  0
 39 77  1  0
 40 78  1  0
 41 79  1  0
 41 80  1  0
M  END
> <Name>
CHEMBL1917250

> <IC50 nM>
2.85

> <Molecule_ChEMBL_ID>
CHEMBL1917250

> <Smiles>
C[C@]12CCC(=O)C=C1CC[C@@H]1[C@@H]2[C@@H](O)C[C@@]2(C)[C@H]1CC[C@]2(OC(=O)c1ccco1)C(=O)CSc1ccc2ccccc2n1

$$$$
CHEMBL1917252
  SciTegic08162514323D

 81 87  0  0  1  0            999 V2000
   -2.6600   -2.1860    0.9360 S   0  0
   -4.0450   -2.0610    1.8930 C   0  0
   -3.1660   -1.4450   -0.5680 C   0  0
   -5.2540   -1.6780    1.3670 N   0  0
   -4.0260   -2.3340    3.2360 N   0  0
   -1.9690   -1.2500   -1.4590 C   0  0
   -6.0430   -1.7170    2.4610 C   0  0
   -5.3090   -2.1090    3.5800 C   0  0
   -2.8950   -2.7600    4.0780 C   0  0
   -1.7230   -2.0310   -2.3500 O   0  0
   -1.0860   -0.0510   -1.2090 C   0  0  2  0  0  0
   -7.4240   -1.4220    2.5650 C   0  0
   -5.9280   -2.2230    4.8500 C   0  0
   -1.0450    0.6990   -2.4180 O   0  0
    0.3460   -0.3890   -0.7560 C   0  0  2  0  0  0
   -1.5900    0.8630   -0.0820 C   0  0
   -8.0550   -1.5310    3.8280 C   0  0
   -7.3110   -1.9320    4.9670 C   0  0
   -2.2580    1.0330   -2.8500 C   0  0
    0.8160    0.9980   -0.3070 C   0  0  1  0  0  0
    1.3090   -0.8690   -1.8550 C   0  0
    0.2730   -1.3730    0.4240 C   0  0
   -0.3440    1.4750    0.5670 C   0  0
   -3.2750    0.8110   -2.2340 O   0  0
   -2.3160    1.6990   -4.1410 C   0  0
    2.2130    0.9630    0.3400 C   0  0  1  0  0  0
    2.7770   -0.8970   -1.3730 C   0  0  1  0  0  0
   -1.1410    1.9530   -4.7810 O   0  0
   -3.4380    2.1330   -4.8500 C   0  0
    3.2300    0.4370   -0.7030 C   0  0  2  0  0  0
    2.5780    2.3910    0.7720 C   0  0
    2.9530   -1.9980   -0.5020 O   0  0
   -1.5350    2.5700   -5.9340 C   0  0
   -2.9280    2.7010   -6.0180 C   0  0
    4.7030    0.4590   -0.1720 C   0  0  2  0  0  0
    3.9940    2.4690    1.3420 C   0  0
    5.0350    1.8140    0.4530 C   0  0
    5.6640    0.1330   -1.3440 C   0  0
    4.9120   -0.5550    0.9630 C   0  0
    6.2230    2.4260    0.2540 C   0  0
    7.1390    0.4120   -1.0250 C   0  0
    7.3160    1.8220   -0.5230 C   0  0
    8.3260    2.4450   -0.7500 O   0  0
   -3.6330   -0.4840   -0.3590 H   0  0
   -3.8950   -2.0880   -1.0620 H   0  0
   -2.0060   -2.8770    3.4590 H   0  0
   -2.7540   -2.0410    4.8870 H   0  0
   -3.1190   -3.7270    4.5280 H   0  0
   -7.9920   -1.1150    1.6970 H   0  0
   -5.3610   -2.5270    5.7170 H   0  0
   -2.2540    1.6250   -0.4630 H   0  0
   -2.1410    0.3050    0.6620 H   0  0
   -9.1080   -1.3110    3.9260 H   0  0
   -7.7970   -2.0140    5.9280 H   0  0
    0.8690    1.6520   -1.1700 H   0  0
    1.2480   -0.1950   -2.7110 H   0  0
    1.0020   -1.8480   -2.2300 H   0  0
   -0.4840   -1.0820    1.1510 H   0  0
    1.2300   -1.4260    0.9420 H   0  0
    0.0290   -2.3770    0.0720 H   0  0
   -0.3950    2.5530    0.6100 H   0  0
   -0.2310    1.1130    1.5780 H   0  0
    2.2050    0.3110    1.2130 H   0  0
    3.4080   -1.1020   -2.2380 H   0  0
   -4.4770    2.0490   -4.5590 H   0  0
    3.2070    1.1680   -1.5140 H   0  0
    1.8710    2.7560    1.5180 H   0  0
    2.5000    3.0660   -0.0820 H   0  0
    3.6230   -2.5740   -0.9000 H   0  0
   -0.8400    2.9140   -6.6890 H   0  0
   -3.4920    3.1500   -6.8240 H   0  0
    4.2480    3.5140    1.5270 H   0  0
    4.0160    1.9750    2.3150 H   0  0
    5.5630   -0.9100   -1.6420 H   0  0
    5.3870    0.7230   -2.2170 H   0  0
    5.7790   -0.3070    1.5740 H   0  0
    5.0630   -1.5570    0.5630 H   0  0
    4.0410   -0.5860    1.6170 H   0  0
    6.3930    3.4020    0.6880 H   0  0
    7.5020   -0.2830   -0.2690 H   0  0
    7.7480    0.2580   -1.9160 H   0  0
  1  2  1  0
  1  3  1  0
  2  4  2  0
  2  5  1  0
  3  6  1  0
  4  7  1  0
  5  8  1  0
  5  9  1  0
  6 10  2  0
  6 11  1  0
  7 12  1  0
  8 13  1  0
 11 14  1  0
 11 15  1  0
 11 16  1  0
 12 17  2  0
 13 18  2  0
 14 19  1  0
 15 20  1  0
 15 21  1  0
 15 22  1  0
 16 23  1  0
 19 24  2  0
 19 25  1  0
 20 26  1  0
 21 27  1  0
 25 28  1  0
 25 29  2  0
 30 26  1  0
 26 31  1  0
 27 32  1  0
 28 33  1  0
 29 34  1  0
 30 35  1  0
 31 36  1  0
 35 37  1  0
 35 38  1  0
 35 39  1  0
 37 40  2  0
 38 41  1  0
 40 42  1  0
 42 43  2  0
  7  8  2  0
 17 18  1  0
 20 23  1  0
 27 30  1  0
 33 34  2  0
 36 37  1  0
 41 42  1  0
  3 44  1  0
  3 45  1  0
  9 46  1  0
  9 47  1  0
  9 48  1  0
 12 49  1  0
 13 50  1  0
 16 51  1  0
 16 52  1  0
 17 53  1  0
 18 54  1  0
 20 55  1  0
 21 56  1  0
 21 57  1  0
 22 58  1  0
 22 59  1  0
 22 60  1  0
 23 61  1  0
 23 62  1  0
 26 63  1  0
 27 64  1  0
 29 65  1  0
 30 66  1  0
 31 67  1  0
 31 68  1  0
 32 69  1  0
 33 70  1  0
 34 71  1  0
 36 72  1  0
 36 73  1  0
 38 74  1  0
 38 75  1  0
 39 76  1  0
 39 77  1  0
 39 78  1  0
 40 79  1  0
 41 80  1  0
 41 81  1  0
M  END
> <Name>
CHEMBL1917252

> <IC50 nM>
3.7

> <Molecule_ChEMBL_ID>
CHEMBL1917252

> <Smiles>
Cn1c(SCC(=O)[C@@]2(OC(=O)c3ccco3)CC[C@H]3[C@@H]4CCC5=CC(=O)CC[C@]5(C)[C@H]4[C@@H](O)C[C@@]32C)nc2ccccc21

$$$$
CHEMBL377154
  SciTegic08162514323D

 56 59  0  0  1  0            999 V2000
    0.6470    2.2890   -2.8400 F   0  0
    0.0720    1.0660   -3.0760 C   0  0
   -1.2640    1.2300   -3.3360 F   0  0
    0.6800    0.4760   -4.1540 F   0  0
    0.2460    0.1760   -1.8460 C   0  0  3  0  0  0
    1.6250    0.0720   -1.5660 O   0  0
   -0.4390    0.9000   -0.7190 C   0  0
   -0.3070   -1.2350   -2.0530 C   0  0
   -1.6290    0.7850   -0.5370 O   0  0
    0.3090    1.6990    0.1000 N   0  0
   -0.1950   -2.1060   -0.7970 C   0  0  3  0  0  0
   -0.2750    2.3570    1.1110 C   0  0
    0.8670   -3.1350   -1.0310 C   0  0
   -1.5800   -2.7270   -0.4980 C   0  0
    0.1780   -1.2030    0.3890 C   0  0
    0.1620    3.6620    1.4630 C   0  0
   -1.3380    1.7560    1.8380 C   0  0
    0.5550   -4.5180   -1.2380 C   0  0
    2.2310   -2.7290   -1.0700 C   0  0
   -1.8870   -3.9060   -1.4240 C   0  0
   -0.4590    4.3530    2.5350 C   0  0
   -1.9590    2.4450    2.9060 C   0  0
    1.6000   -5.4490   -1.4670 C   0  0
   -0.8460   -5.0120   -1.2150 C   0  0
    3.2620   -3.6660   -1.3010 C   0  0
   -1.5140    3.7440    3.2480 C   0  0
   -0.0270    5.7230    2.9380 C   0  0
    2.9450   -5.0280   -1.5000 C   0  0
   -2.1250    4.5210    4.3610 C   0  0
   -0.6130    6.3260    3.9180 N   0  0
    1.0920    6.4340    2.2210 C   0  0
   -3.0350    4.0820    5.0270 O   0  0
   -1.7090    5.7640    4.7050 O   0  0
    2.0430   -0.3340   -2.3420 H   0  0
    0.1780   -1.7170   -2.9020 H   0  0
   -1.3380   -1.1950   -2.4060 H   0  0
    1.2930    1.7930   -0.0530 H   0  0
   -2.3610   -1.9730   -0.5860 H   0  0
   -1.6190   -3.0780    0.5350 H   0  0
   -0.6480   -0.5590    0.6860 H   0  0
    1.0230   -0.5650    0.1350 H   0  0
    0.4610   -1.8010    1.2560 H   0  0
    0.9690    4.1290    0.9160 H   0  0
   -1.6860    0.7640    1.5880 H   0  0
    2.4920   -1.6920   -0.9220 H   0  0
   -2.8870   -4.2910   -1.2250 H   0  0
   -1.8830   -3.5740   -2.4630 H   0  0
   -2.7660    1.9760    3.4510 H   0  0
    1.3690   -6.4940   -1.6170 H   0  0
   -1.0180   -5.4920   -0.2520 H   0  0
   -0.9880   -5.7810   -1.9770 H   0  0
    4.2910   -3.3420   -1.3280 H   0  0
    3.7330   -5.7440   -1.6780 H   0  0
    1.2560    7.4140    2.6680 H   0  0
    1.9940    5.8240    2.2460 H   0  0
    0.8220    6.5860    1.1740 H   0  0
  1  2  1  0
  2  3  1  0
  2  4  1  0
  2  5  1  0
  5  6  1  0
  5  7  1  0
  5  8  1  0
  7  9  2  0
  7 10  1  0
  8 11  1  0
 10 12  1  0
 11 13  1  0
 11 14  1  0
 11 15  1  0
 12 16  2  0
 12 17  1  0
 13 18  2  0
 13 19  1  0
 14 20  1  0
 16 21  1  0
 17 22  2  0
 18 23  1  0
 18 24  1  0
 19 25  2  0
 21 26  2  0
 21 27  1  0
 23 28  2  0
 26 29  1  0
 27 30  2  0
 27 31  1  0
 29 32  2  0
 29 33  1  0
 20 24  1  0
 22 26  1  0
 25 28  1  0
 30 33  1  0
  6 34  1  0
  8 35  1  0
  8 36  1  0
 10 37  1  0
 14 38  1  0
 14 39  1  0
 15 40  1  0
 15 41  1  0
 15 42  1  0
 16 43  1  0
 17 44  1  0
 19 45  1  0
 20 46  1  0
 20 47  1  0
 22 48  1  0
 23 49  1  0
 24 50  1  0
 24 51  1  0
 25 52  1  0
 28 53  1  0
 31 54  1  0
 31 55  1  0
 31 56  1  0
M  END
> <Name>
CHEMBL377154

> <IC50 nM>
10

> <Molecule_ChEMBL_ID>
CHEMBL377154

> <Smiles>
Cc1noc(=O)c2ccc(NC(=O)C(O)(CC3(C)CCCc4ccccc43)C(F)(F)F)cc12

$$$$
CHEMBL450943
  SciTegic08162514323D

 55 58  0  0  1  0            999 V2000
   -0.1990    2.8580   -3.3770 F   0  0
    0.3160    1.5880   -3.4490 C   0  0
   -0.5470    0.7830   -4.1450 F   0  0
    1.5270    1.6250   -4.0940 F   0  0
    0.5080    1.0330   -2.0370 C   0  0  3  0  0  0
    1.4470    1.8440   -1.3690 O   0  0
   -0.8340    1.1620   -1.3670 C   0  0
    1.0250   -0.4040   -2.0330 C   0  0
   -1.8590    1.0610   -2.0000 O   0  0
   -0.8750    1.3970   -0.0210 N   0  0
    1.2380   -0.9530   -0.6170 C   0  0  3  0  0  0
   -2.0550    1.5160    0.6040 C   0  0
    2.5390   -1.6760   -0.5450 C   0  0
    0.0390   -1.8160   -0.1820 C   0  0
   -2.2420    2.5120    1.5980 C   0  0
   -3.1290    0.6470    0.2770 C   0  0
    2.6040   -3.1030   -0.4690 C   0  0
    3.7440   -0.9240   -0.5590 C   0  0
    0.0960   -3.1990   -0.8360 C   0  0
   -3.4920    2.6330    2.2560 C   0  0
   -4.3770    0.7660    0.9320 C   0  0
    3.8670   -3.7460   -0.4340 C   0  0
    1.3750   -3.9390   -0.4160 C   0  0
    4.9980   -1.5700   -0.5180 C   0  0
   -4.5510    1.7620    1.9220 C   0  0
   -3.7290    3.6640    3.3070 C   0  0
    5.0530   -2.9800   -0.4610 C   0  0
   -5.8380    1.9400    2.6470 C   0  0
   -4.8770    3.7480    3.8890 N   0  0
   -2.6430    4.6290    3.7150 C   0  0
    6.2910   -3.6230   -0.4300 N   0  3
   -6.8010    1.2420    2.4240 O   0  0
   -6.0220    2.8870    3.5980 O   0  0
    7.2760   -2.9200   -0.4550 O   0  0
    6.2810   -4.8520   -0.3810 O   0  5
    2.3050    1.7050   -1.8010 H   0  0
    1.9410   -0.4840   -2.6190 H   0  0
    0.3630   -1.0550   -2.6040 H   0  0
   -0.0250    1.4810    0.5000 H   0  0
    1.2810   -0.0980    0.0610 H   0  0
   -0.8960   -1.3160   -0.4340 H   0  0
    0.0410   -1.9320    0.9020 H   0  0
   -1.4320    3.1820    1.8540 H   0  0
   -3.0080   -0.1210   -0.4770 H   0  0
    3.7070    0.1560   -0.6040 H   0  0
    0.0640   -3.0960   -1.9220 H   0  0
   -0.7810   -3.7850   -0.5590 H   0  0
   -5.1860    0.0980    0.6720 H   0  0
    3.9280   -4.8240   -0.3850 H   0  0
    1.2580   -4.2950    0.6090 H   0  0
    1.4960   -4.8280   -1.0370 H   0  0
    5.9100   -0.9900   -0.5310 H   0  0
   -3.0230    5.3190    4.4690 H   0  0
   -1.7750    4.0760    4.0780 H   0  0
   -2.3260    5.2170    2.8540 H   0  0
  1  2  1  0
  2  3  1  0
  2  4  1  0
  2  5  1  0
  5  6  1  0
  5  7  1  0
  5  8  1  0
  7  9  2  0
  7 10  1  0
  8 11  1  0
 10 12  1  0
 11 13  1  0
 11 14  1  0
 12 15  2  0
 12 16  1  0
 13 17  2  0
 13 18  1  0
 14 19  1  0
 15 20  1  0
 16 21  2  0
 17 22  1  0
 17 23  1  0
 18 24  2  0
 20 25  2  0
 20 26  1  0
 22 27  2  0
 25 28  1  0
 26 29  2  0
 26 30  1  0
 27 31  1  0
 28 32  2  0
 28 33  1  0
 31 34  2  0
 31 35  1  0
 19 23  1  0
 21 25  1  0
 24 27  1  0
 29 33  1  0
  6 36  1  0
  8 37  1  0
  8 38  1  0
 10 39  1  0
 11 40  1  0
 14 41  1  0
 14 42  1  0
 15 43  1  0
 16 44  1  0
 18 45  1  0
 19 46  1  0
 19 47  1  0
 21 48  1  0
 22 49  1  0
 23 50  1  0
 23 51  1  0
 24 52  1  0
 30 53  1  0
 30 54  1  0
 30 55  1  0
M  CHG  2  31   1  35  -1
M  END
> <Name>
CHEMBL450943

> <IC50 nM>
125.89

> <Molecule_ChEMBL_ID>
CHEMBL450943

> <Smiles>
Cc1noc(=O)c2ccc(NC(=O)C(O)(CC3CCCc4cc([N+](=O)[O-])ccc43)C(F)(F)F)cc12

$$$$
CHEMBL303094
  SciTegic08162514323D

 49 53  0  0  1  0            999 V2000
   -4.4410   -1.3030    0.4900 S   0  0
   -4.2560   -2.1080   -0.7050 O   0  0
   -4.0640   -1.9940    1.7110 O   0  0
   -3.4860    0.0000    0.3540 N   0  0
   -6.1600   -0.8260    0.6040 C   0  0
   -2.1560   -0.1510    0.2790 C   0  0
   -1.3100    0.9800    0.1780 C   0  0
   -1.5800   -1.4400    0.2990 C   0  0
    0.1040    0.8360    0.1070 C   0  0
   -0.1780   -1.6000    0.2420 C   0  0
    0.6860   -0.4690    0.1910 C   0  0
    0.9980    2.0290   -0.0290 C   0  0  1  0  0  0
    2.1700   -0.5780    0.2070 C   0  0
    2.2890    1.7030   -0.5660 O   0  0
    0.4300    3.1030   -0.8960 C   0  0
    2.9120    0.5550   -0.2380 C   0  0
    2.9300   -1.7170    0.6250 C   0  0
    0.0760    4.3460   -0.3400 C   0  0
    0.2460    2.8730   -2.2730 C   0  0
    4.3240    0.5020   -0.3550 C   0  0
    2.2930   -2.9140    1.2230 C   0  0
    4.3360   -1.7810    0.5230 C   0  0
   -0.4590    5.3550   -1.1580 C   0  0
   -0.2890    3.8830   -3.0900 C   0  0
    5.0310   -0.6640    0.0140 C   0  0
    1.3610   -2.8600    2.6290 S   0  0
    2.4450   -4.1680    0.6250 C   0  0
   -0.6430    5.1250   -2.5310 C   0  0
    1.1020   -4.5430    2.5200 C   0  0
    1.7400   -5.1170    1.3980 C   0  0
   -3.8890    0.9140    0.3240 H   0  0
   -6.7830   -1.7190    0.6350 H   0  0
   -6.3030   -0.1820    1.4710 H   0  0
   -6.4390   -0.2560   -0.2830 H   0  0
   -1.7500    1.9670    0.1540 H   0  0
   -2.2010   -2.3220    0.3590 H   0  0
    0.1800   -2.6150    0.2340 H   0  0
    1.1520    2.4450    0.9670 H   0  0
    0.2150    4.5290    0.7150 H   0  0
    0.5160    1.9220   -2.7070 H   0  0
    4.8650    1.3590   -0.7290 H   0  0
    4.8810   -2.6640    0.8260 H   0  0
   -0.7300    6.3090   -0.7300 H   0  0
   -0.4300    3.7070   -4.1450 H   0  0
    6.1060   -0.6950   -0.0860 H   0  0
    3.0060   -4.3870   -0.2750 H   0  0
   -1.0550    5.9020   -3.1600 H   0  0
    0.5120   -5.0980    3.2380 H   0  0
    1.6950   -6.1700    1.1560 H   0  0
  1  2  2  0
  1  3  2  0
  1  4  1  0
  1  5  1  0
  4  6  1  0
  6  7  2  0
  6  8  1  0
  7  9  1  0
  8 10  2  0
  9 11  2  0
  9 12  1  0
 11 13  1  0
 12 14  1  0
 12 15  1  0
 13 16  2  0
 13 17  1  0
 15 18  2  0
 15 19  1  0
 16 20  1  0
 17 21  1  0
 17 22  2  0
 18 23  1  0
 19 24  2  0
 20 25  2  0
 21 26  1  0
 21 27  2  0
 23 28  2  0
 26 29  1  0
 27 30  1  0
 10 11  1  0
 14 16  1  0
 22 25  1  0
 24 28  1  0
 29 30  2  0
  4 31  1  0
  5 32  1  0
  5 33  1  0
  5 34  1  0
  7 35  1  0
  8 36  1  0
 10 37  1  0
 12 38  1  0
 18 39  1  0
 19 40  1  0
 20 41  1  0
 22 42  1  0
 23 43  1  0
 24 44  1  0
 25 45  1  0
 27 46  1  0
 28 47  1  0
 29 48  1  0
 30 49  1  0
M  END
> <Name>
CHEMBL303094

> <IC50 nM>
656

> <Molecule_ChEMBL_ID>
CHEMBL303094

> <Smiles>
CS(=O)(=O)Nc1ccc2c(c1)C(c1ccccc1)Oc1cccc(-c3cccs3)c1-2

$$$$
CHEMBL2407651
  SciTegic08162514323D

 56 59  0  0  1  0            999 V2000
    4.9710    2.6540    0.3670 Cl  0  0
    3.7340    2.6330   -0.8300 C   0  0
    3.2890    3.8090   -1.4840 C   0  0
    3.1540    1.3930   -1.1600 C   0  0
    3.9430    5.3630   -1.1370 Cl  0  0
    2.2730    3.7210   -2.4570 C   0  0
    2.1430    1.3150   -2.1310 C   0  0
    1.7030    2.4790   -2.7810 C   0  0
    1.5370    0.0000   -2.4730 C   0  0
    0.6130   -0.4590   -1.4240 N   0  0
   -0.5940    0.1640   -1.2740 C   0  0
   -0.9000    1.0820   -1.9960 O   0  0
   -1.5270   -0.3200   -0.1930 C   0  0  1  0  0  0
   -1.5390   -1.7560   -0.1900 O   0  0
   -1.0000    0.0630    1.1740 C   0  0
   -2.9450    0.1880   -0.4200 C   0  0
   -1.0940   -2.1740    0.9960 C   0  0
   -0.8140    1.1700    1.6250 O   0  0
   -0.7580   -1.1290    1.8500 N   0  0
   -3.5220   -0.3400   -1.6840 C   0  0
   -0.9820   -3.3300    1.3340 O   0  0
   -0.2440   -1.2560    3.2090 C   0  0  1  0  0  0
   -3.9550   -1.6760   -1.7560 C   0  0
   -3.6310    0.4940   -2.8110 C   0  0
    1.2300   -1.0620    3.2580 C   0  0
   -0.9650   -0.3320    4.1910 C   0  0
   -4.5000   -2.1760   -2.9510 C   0  0
   -4.1760   -0.0040   -4.0060 C   0  0
    2.0820   -2.1740    3.3830 C   0  0
    1.7720    0.2320    3.1780 C   0  0
   -4.6090   -1.3400   -4.0780 C   0  0
    3.4750   -1.9900    3.4280 C   0  0
    3.1640    0.4160    3.2230 C   0  0
   -5.1250   -1.8120   -5.2110 F   0  0
    4.0180   -0.6950    3.3480 C   0  0
    5.3360   -0.5210    3.3910 F   0  0
    3.4820    0.4860   -0.6680 H   0  0
    1.9220    4.6060   -2.9690 H   0  0
    0.9260    2.4260   -3.5290 H   0  0
    0.9960    0.0820   -3.4140 H   0  0
    2.3260   -0.7400   -2.6040 H   0  0
    0.8590   -1.2190   -0.8220 H   0  0
   -2.9650    1.2770   -0.4380 H   0  0
   -3.5900   -0.0860    0.4160 H   0  0
   -0.3180   -2.2950    3.5310 H   0  0
   -3.8730   -2.3220   -0.8950 H   0  0
   -3.2990    1.5220   -2.7620 H   0  0
   -2.0350   -0.5370    4.1970 H   0  0
   -0.5720   -0.4610    5.2010 H   0  0
   -0.8260    0.7110    3.9100 H   0  0
   -4.8320   -3.2010   -3.0020 H   0  0
   -4.2580    0.6410   -4.8690 H   0  0
    1.6720   -3.1720    3.4430 H   0  0
    1.1230    1.0900    3.0820 H   0  0
    4.1270   -2.8480    3.5230 H   0  0
    3.5780    1.4120    3.1620 H   0  0
  1  2  1  0
  2  3  2  0
  2  4  1  0
  3  5  1  0
  3  6  1  0
  4  7  2  0
  6  8  2  0
  7  9  1  0
  9 10  1  0
 10 11  1  0
 11 12  2  0
 13 11  1  0
 13 14  1  0
 13 15  1  0
 13 16  1  0
 14 17  1  0
 15 18  2  0
 15 19  1  0
 16 20  1  0
 17 21  2  0
 19 22  1  0
 20 23  2  0
 20 24  1  0
 22 25  1  0
 22 26  1  0
 23 27  1  0
 24 28  2  0
 25 29  2  0
 25 30  1  0
 27 31  2  0
 29 32  1  0
 30 33  2  0
 31 34  1  0
 32 35  2  0
 35 36  1  0
  7  8  1  0
 17 19  1  0
 28 31  1  0
 33 35  1  0
  4 37  1  0
  6 38  1  0
  8 39  1  0
  9 40  1  0
  9 41  1  0
 10 42  1  0
 16 43  1  0
 16 44  1  0
 22 45  1  0
 23 46  1  0
 24 47  1  0
 26 48  1  0
 26 49  1  0
 26 50  1  0
 27 51  1  0
 28 52  1  0
 29 53  1  0
 30 54  1  0
 32 55  1  0
 33 56  1  0
M  END
> <Name>
CHEMBL2407651

> <IC50 nM>
11000

> <Molecule_ChEMBL_ID>
CHEMBL2407651

> <Smiles>
C[C@H](c1ccc(F)cc1)N1C(=O)O[C@](Cc2ccc(F)cc2)(C(=O)NCc2ccc(Cl)c(Cl)c2)C1=O

$$$$
CHEMBL438260
  SciTegic08162514323D

 61 64  0  0  1  0            999 V2000
   -0.2700    6.5160   -3.8310 O   0  0
    0.1270    5.3990   -4.0680 C   0  0
    0.6720    4.9490   -5.2240 O   0  0
    0.0890    4.3010   -3.1230 C   0  0
    1.0220    3.5350   -5.1080 C   0  0
    0.6140    3.1600   -3.6980 C   0  0
   -0.3950    4.3130   -1.7930 C   0  0
    0.6670    1.9660   -2.9350 C   0  0
   -0.3400    3.1240   -1.0290 C   0  0
    0.1920    1.9380   -1.5970 C   0  0
    0.2470    0.8060   -0.8810 N   0  0
    0.5740    0.8510    0.4450 C   0  0
    0.8400    1.9060    0.9720 O   0  0
    0.5940   -0.4340    1.2280 C   0  0  1  0  0  0
   -0.4980   -1.2370    0.8420 O   0  0
    1.8780   -1.2330    1.0040 C   0  0
    0.3980   -0.0290    2.6900 C   0  0
    2.0080   -1.6750   -0.4080 C   0  0
   -1.0760    0.1150    3.0690 C   0  0
    2.7070   -0.8790   -1.3330 C   0  0
    1.4330   -2.8890   -0.8220 C   0  0
   -1.7720   -1.1990    3.0690 C   0  0
   -1.2750    0.8570    4.3910 C   0  0
   -1.9240    0.6920    1.9350 C   0  0
    2.8310   -1.2950   -2.6710 C   0  0
    1.5550   -3.3100   -2.1580 C   0  0
   -3.1780   -1.2500    3.0690 C   0  0
   -1.0260   -2.3910    3.0690 C   0  0
    3.4860   -0.5490   -3.5370 O   0  0
    2.2540   -2.5100   -3.0790 C   0  0
    1.0160   -4.4480   -2.5450 O   0  0
   -3.8360   -2.4930    3.0690 C   0  0
   -1.6850   -3.6330    3.0690 C   0  0
   -3.0890   -3.6840    3.0690 C   0  0
    0.4730    2.9660   -5.8450 H   0  0
    2.0850    3.4120   -5.2600 H   0  0
   -0.8010    5.2180   -1.3630 H   0  0
    1.0770    1.0770   -3.3950 H   0  0
   -0.7090    3.1360   -0.0120 H   0  0
    0.0490   -0.0720   -1.3170 H   0  0
   -0.3190   -1.5510   -0.0580 H   0  0
    1.9110   -2.1020    1.6620 H   0  0
    2.7520   -0.6440    1.2830 H   0  0
    0.9000   -0.7320    3.3550 H   0  0
    0.9450    0.8870    2.9130 H   0  0
    3.1490    0.0550   -1.0180 H   0  0
    0.8960   -3.5020   -0.1120 H   0  0
   -2.3290    0.9360    4.6580 H   0  0
   -0.8710    1.8680    4.3300 H   0  0
   -0.7630    0.3420    5.2030 H   0  0
   -2.8230    1.1660    2.3280 H   0  0
   -1.3550    1.4250    1.3640 H   0  0
   -2.2360   -0.0960    1.2490 H   0  0
   -3.7570   -0.3390    3.0690 H   0  0
    0.0540   -2.3580    3.0690 H   0  0
    3.5640   -0.8460   -4.4530 H   0  0
    2.3490   -2.8320   -4.1060 H   0  0
    0.5380   -4.9880   -1.9020 H   0  0
   -4.9150   -2.5320    3.0690 H   0  0
   -1.1110   -4.5480    3.0690 H   0  0
   -3.5950   -4.6380    3.0690 H   0  0
  1  2  2  0
  2  3  1  0
  2  4  1  0
  3  5  1  0
  4  6  2  0
  4  7  1  0
  6  8  1  0
  7  9  2  0
  8 10  2  0
 10 11  1  0
 11 12  1  0
 12 13  2  0
 12 14  1  0
 14 15  1  0
 14 16  1  0
 14 17  1  0
 16 18  1  0
 17 19  1  0
 18 20  2  0
 18 21  1  0
 19 22  1  0
 19 23  1  0
 19 24  1  0
 20 25  1  0
 21 26  2  0
 22 27  2  0
 22 28  1  0
 25 29  1  0
 25 30  2  0
 26 31  1  0
 27 32  1  0
 28 33  2  0
 32 34  2  0
  5  6  1  0
  9 10  1  0
 26 30  1  0
 33 34  1  0
  5 35  1  0
  5 36  1  0
  7 37  1  0
  8 38  1  0
  9 39  1  0
 11 40  1  0
 15 41  1  0
 16 42  1  0
 16 43  1  0
 17 44  1  0
 17 45  1  0
 20 46  1  0
 21 47  1  0
 23 48  1  0
 23 49  1  0
 23 50  1  0
 24 51  1  0
 24 52  1  0
 24 53  1  0
 27 54  1  0
 28 55  1  0
 29 56  1  0
 30 57  1  0
 31 58  1  0
 32 59  1  0
 33 60  1  0
 34 61  1  0
M  END
> <Name>
CHEMBL438260

> <IC50 nM>
2000

> <Molecule_ChEMBL_ID>
CHEMBL438260

> <Smiles>
CC(C)(CC(O)(Cc1cc(O)cc(O)c1)C(=O)Nc1ccc2c(c1)COC2=O)c1ccccc1

$$$$
CHEMBL366182
  SciTegic08162514323D

 58 61  0  0  1  0            999 V2000
   -5.6510    4.9040    0.4040 O   0  0
   -5.6110    3.6970    0.4590 C   0  0
   -6.6580    2.8380    0.3890 O   0  0
   -4.3950    2.9260    0.6130 C   0  0
   -6.1920    1.4570    0.4960 C   0  0
   -4.6900    1.5760    0.6430 C   0  0
   -3.0680    3.4040    0.7270 C   0  0
   -3.6310    0.6450    0.7910 C   0  0
   -2.0120    2.4770    0.8710 C   0  0
   -2.2850    1.0860    0.9040 C   0  0
   -1.2890    0.1990    1.0430 N   0  0
   -0.1250    0.3650    0.3480 C   0  0
    0.0120    1.3110   -0.3950 O   0  0
    0.9730   -0.6480    0.5230 C   0  0  1  0  0  0
    2.0120   -0.3790   -0.3890 O   0  0
    1.5610   -0.6310    1.9360 C   0  0
    0.3530   -1.9980    0.1580 C   0  0
    2.2030    0.6720    2.2460 C   0  0
    0.2400   -2.2050   -1.3520 C   0  0
    3.5610    0.7830    2.1460 N   0  0
    1.4060    1.7680    2.6350 C   0  0
    1.5720   -2.3950   -1.9810 C   0  0
   -0.7230   -3.3340   -1.7230 C   0  0
   -0.0570   -0.9060   -2.1060 C   0  0
    4.1640    1.9730    2.4280 C   0  0
    2.0190    2.9980    2.9260 C   0  0
    1.7110   -2.3110   -3.3770 C   0  0
    2.6970   -2.6580   -1.1780 C   0  0
    3.4180    3.1020    2.8220 C   0  0
    2.9730   -2.4900   -3.9710 C   0  0
    3.9590   -2.8380   -1.7730 C   0  0
    4.0960   -2.7540   -3.1700 C   0  0
   -6.6410    0.9900    1.3610 H   0  0
   -6.4610    0.9140   -0.4000 H   0  0
   -2.8630    4.4650    0.7030 H   0  0
   -3.8690   -0.4100    0.8140 H   0  0
   -0.9980    2.8460    0.9550 H   0  0
   -1.3990   -0.5840    1.6540 H   0  0
    2.2830    0.5430   -0.2500 H   0  0
    2.2870   -1.4340    2.0610 H   0  0
    0.7870   -0.8420    2.6760 H   0  0
    0.9100   -2.8140    0.6190 H   0  0
   -0.6170   -2.1170    0.6390 H   0  0
    0.3320    1.6680    2.7090 H   0  0
   -0.7830   -3.4790   -2.8010 H   0  0
   -1.7290   -3.1170   -1.3590 H   0  0
   -0.4020   -4.2750   -1.2750 H   0  0
   -0.3870   -1.1170   -3.1210 H   0  0
   -0.8260   -0.3300   -1.5920 H   0  0
    0.8380   -0.2850   -2.1680 H   0  0
    5.2380    2.0510    2.3480 H   0  0
    1.4280    3.8500    3.2270 H   0  0
    0.8520   -2.1070   -4.0000 H   0  0
    2.6000   -2.7250   -0.1060 H   0  0
    3.9140    4.0350    3.0410 H   0  0
    3.0780   -2.4240   -5.0450 H   0  0
    4.8220   -3.0410   -1.1560 H   0  0
    5.0640   -2.8930   -3.6270 H   0  0
  1  2  2  0
  2  3  1  0
  2  4  1  0
  3  5  1  0
  4  6  2  0
  4  7  1  0
  6  8  1  0
  7  9  2  0
  8 10  2  0
 10 11  1  0
 11 12  1  0
 12 13  2  0
 12 14  1  0
 14 15  1  0
 14 16  1  0
 14 17  1  0
 16 18  1  0
 17 19  1  0
 18 20  2  0
 18 21  1  0
 19 22  1  0
 19 23  1  0
 19 24  1  0
 20 25  1  0
 21 26  2  0
 22 27  2  0
 22 28  1  0
 25 29  2  0
 27 30  1  0
 28 31  2  0
 30 32  2  0
  5  6  1  0
  9 10  1  0
 26 29  1  0
 31 32  1  0
  5 33  1  0
  5 34  1  0
  7 35  1  0
  8 36  1  0
  9 37  1  0
 11 38  1  0
 15 39  1  0
 16 40  1  0
 16 41  1  0
 17 42  1  0
 17 43  1  0
 21 44  1  0
 23 45  1  0
 23 46  1  0
 23 47  1  0
 24 48  1  0
 24 49  1  0
 24 50  1  0
 25 51  1  0
 26 52  1  0
 27 53  1  0
 28 54  1  0
 29 55  1  0
 30 56  1  0
 31 57  1  0
 32 58  1  0
M  END
> <Name>
CHEMBL366182

> <IC50 nM>
760

> <Molecule_ChEMBL_ID>
CHEMBL366182

> <Smiles>
CC(C)(CC(O)(Cc1ccccn1)C(=O)Nc1ccc2c(c1)COC2=O)c1ccccc1

$$$$
CHEMBL515671
  SciTegic08162514323D

 61 64  0  0  1  0            999 V2000
   -3.0490   -2.0220   -0.0820 O   0  0
   -2.0510   -1.1290   -0.0140 C   0  0
   -3.5290   -2.3890   -1.3670 C   0  0
   -1.5350   -0.7380    1.2400 C   0  0
   -1.5140   -0.5760   -1.1950 C   0  0
   -4.6250   -3.3850   -1.2210 C   0  0
   -0.4800    0.2050    1.3280 C   0  0
   -0.4670    0.3670   -1.1210 C   0  0
   -4.3530   -4.7090   -0.8110 C   0  0
   -5.9530   -3.0080   -1.4920 C   0  0
    0.0720    0.7750    0.1330 C   0  0
    0.0180    0.5660    2.6820 C   0  0
   -5.3570   -5.6250   -0.6740 N   0  0
   -2.9610   -5.1350   -0.5140 C   0  0
   -6.9750   -3.9610   -1.3500 C   0  0
    1.1740    1.7990    0.1890 C   0  0  1  0  0  0
    0.9220    1.8070    2.7130 C   0  0
   -6.6460   -5.2680   -0.9380 C   0  0
    1.9200    1.7540    1.5530 C   0  0  2  0  0  0
    2.2460    1.6130   -0.9240 C   0  0
    0.5040    3.1720    0.0060 C   0  0
    3.0100    2.8400    1.6660 C   0  0
    3.3620    2.6800   -0.8460 C   0  0  1  0  0  0
   -0.2750    3.2890   -1.3050 C   0  0
    4.0670    2.7210    0.5430 C   0  0  1  0  0  0
    4.2810    2.4650   -1.9060 O   0  0
    4.8910    3.8730    0.6090 O   0  0
    4.9180    1.5410    0.7660 C   0  0
    5.6000    0.5820    0.9390 C   0  0
    6.4320   -0.6000    1.1450 C   0  0
   -2.7070   -2.8340   -1.9240 H   0  0
   -3.9160   -1.4940   -1.8560 H   0  0
   -1.9510   -1.1660    2.1410 H   0  0
   -1.9040   -0.8750   -2.1560 H   0  0
   -0.0940    0.7730   -2.0490 H   0  0
   -6.1870   -2.0020   -1.8090 H   0  0
   -0.8200    0.7190    3.3630 H   0  0
    0.5780   -0.2870    3.0680 H   0  0
   -2.8710   -6.1640   -0.1680 H   0  0
   -2.5370   -4.4860    0.2520 H   0  0
   -2.3510   -5.0310   -1.4120 H   0  0
   -8.0020   -3.6930   -1.5550 H   0  0
    0.3200    2.7150    2.6540 H   0  0
    1.4450    1.8480    3.6680 H   0  0
   -7.4320   -6.0000   -0.8280 H   0  0
    2.4280    0.7890    1.6310 H   0  0
    2.6800    0.6150   -0.8560 H   0  0
    1.7970    1.6820   -1.9160 H   0  0
   -0.1390    3.3950    0.8570 H   0  0
    1.2400    3.9710    0.0900 H   0  0
    2.5290    3.8200    1.6270 H   0  0
    3.4830    2.7870    2.6480 H   0  0
    2.9100    3.6520   -1.0450 H   0  0
   -0.6110    4.3140   -1.4630 H   0  0
    0.3440    2.9840   -2.1500 H   0  0
   -1.1560    2.6480   -1.2890 H   0  0
    3.8280    2.7030   -2.7310 H   0  0
    5.5040    3.8280   -0.1410 H   0  0
    6.0310   -1.4450    0.5880 H   0  0
    7.4490   -0.4080    0.8030 H   0  0
    6.4630   -0.8610    2.2030 H   0  0
  1  2  1  0
  1  3  1  0
  2  4  2  0
  2  5  1  0
  3  6  1  0
  4  7  1  0
  5  8  2  0
  6  9  2  0
  6 10  1  0
  7 11  2  0
  7 12  1  0
  9 13  1  0
  9 14  1  0
 10 15  2  0
 11 16  1  0
 12 17  1  0
 13 18  2  0
 16 19  1  0
 16 20  1  0
 16 21  1  0
 19 22  1  0
 20 23  1  0
 21 24  1  0
 22 25  1  0
 23 26  1  0
 25 27  1  0
 25 28  1  0
 28 29  3  0
 29 30  1  0
  8 11  1  0
 15 18  1  0
 17 19  1  0
 23 25  1  0
  3 31  1  0
  3 32  1  0
  4 33  1  0
  5 34  1  0
  8 35  1  0
 10 36  1  0
 12 37  1  0
 12 38  1  0
 14 39  1  0
 14 40  1  0
 14 41  1  0
 15 42  1  0
 17 43  1  0
 17 44  1  0
 18 45  1  0
 19 46  1  0
 20 47  1  0
 20 48  1  0
 21 49  1  0
 21 50  1  0
 22 51  1  0
 22 52  1  0
 23 53  1  0
 24 54  1  0
 24 55  1  0
 24 56  1  0
 26 57  1  0
 27 58  1  0
 30 59  1  0
 30 60  1  0
 30 61  1  0
M  END
> <Name>
CHEMBL515671

> <IC50 nM>
3.3

> <Molecule_ChEMBL_ID>
CHEMBL515671

> <Smiles>
CC#C[C@]1(O)C[C@H]2CCc3cc(OCc4cccnc4C)ccc3[C@]2(CC)C[C@@H]1O

$$$$
CHEMBL456215
  SciTegic08162514323D

 46 48  0  0  1  0            999 V2000
   -4.6210   -0.5780   -3.1250 O   0  0
   -3.5720   -0.3400   -2.3260 C   0  0
   -3.3630   -1.1390   -1.1820 C   0  0
   -2.6780    0.7110   -2.6270 C   0  0
   -2.2580   -0.8890   -0.3320 C   0  0
   -1.5740    0.9670   -1.7830 C   0  0
   -1.3480    0.1660   -0.6270 C   0  0
   -2.0390   -1.7170    0.8790 C   0  0
   -0.1890    0.3810    0.3010 C   0  0  1  0  0  0
   -0.5550   -2.0590    1.1190 C   0  0
    0.4590   -1.0040    0.6010 C   0  0  2  0  0  0
    0.9020    1.3280   -0.2700 C   0  0
   -0.7320    1.0040    1.5960 C   0  0
    1.6900   -0.8950    1.5270 C   0  0
    2.1230    1.4570    0.6580 C   0  0
   -1.7320    2.1310    1.3320 C   0  0
    2.7580    0.0880    0.9940 C   0  0  1  0  0  0
   -2.0330    2.7500    2.5640 O   0  0
    3.7190    0.2850    2.0120 O   0  0
    3.4450   -0.4690   -0.1760 C   0  0
    3.9960   -0.9220   -1.1290 C   0  0
    4.6640   -1.4770   -2.3030 C   0  0
   -5.2250   -1.2990   -2.9080 H   0  0
   -4.0530   -1.9390   -0.9550 H   0  0
   -2.8380    1.3200   -3.5040 H   0  0
   -0.9160    1.7810   -2.0410 H   0  0
   -2.4260   -1.1560    1.7320 H   0  0
   -2.6210   -2.6370    0.8420 H   0  0
   -0.3260   -3.0120    0.6390 H   0  0
   -0.4140   -2.2320    2.1870 H   0  0
    0.8260   -1.3910   -0.3540 H   0  0
    0.4920    2.3280   -0.4300 H   0  0
    1.2400    0.9790   -1.2460 H   0  0
    0.0840    1.3540    2.2270 H   0  0
   -1.1720    0.2400    2.2360 H   0  0
    2.1190   -1.8850    1.6820 H   0  0
    1.3480   -0.5640    2.5120 H   0  0
    2.8580    2.1290    0.2090 H   0  0
    1.8050    1.9490    1.5800 H   0  0
   -2.6580    1.7360    0.9160 H   0  0
   -1.3010    2.8830    0.6720 H   0  0
   -2.6660    3.4610    2.3790 H   0  0
    4.2720    1.0350    1.7400 H   0  0
    3.9690   -2.0920   -2.8730 H   0  0
    5.5100   -2.0960   -2.0000 H   0  0
    5.0290   -0.6760   -2.9430 H   0  0
  1  2  1  0
  2  3  2  0
  2  4  1  0
  3  5  1  0
  4  6  2  0
  5  7  2  0
  5  8  1  0
  7  9  1  0
  8 10  1  0
  9 11  1  0
  9 12  1  0
  9 13  1  0
 11 14  1  0
 12 15  1  0
 13 16  1  0
 14 17  1  0
 16 18  1  0
 17 19  1  0
 17 20  1  0
 20 21  3  0
 21 22  1  0
  6  7  1  0
 10 11  1  0
 15 17  1  0
  1 23  1  0
  3 24  1  0
  4 25  1  0
  6 26  1  0
  8 27  1  0
  8 28  1  0
 10 29  1  0
 10 30  1  0
 11 31  1  0
 12 32  1  0
 12 33  1  0
 13 34  1  0
 13 35  1  0
 14 36  1  0
 14 37  1  0
 15 38  1  0
 15 39  1  0
 16 40  1  0
 16 41  1  0
 18 42  1  0
 19 43  1  0
 22 44  1  0
 22 45  1  0
 22 46  1  0
M  END
> <Name>
CHEMBL456215

> <IC50 nM>
1000

> <Molecule_ChEMBL_ID>
CHEMBL456215

> <Smiles>
CC#C[C@@]1(O)CC[C@@]2(CCO)c3ccc(O)cc3CC[C@@H]2C1

$$$$
CHEMBL243863
  SciTegic08162514323D

 49 51  0  0  1  0            999 V2000
   -0.1460   -1.1580    0.2070 S   0  0
   -0.0900   -0.7300    1.5940 O   0  0
   -1.4750   -1.0530   -0.3690 O   0  0
    0.8520   -0.0430   -0.6800 N   0  0
    0.3520   -2.8100    0.1270 C   0  0
    0.4100    1.3380   -0.7790 C   0  0  1  0  0  0
    0.1390   -3.6640    1.2270 C   0  0
    0.9710   -3.3030   -1.0370 C   0  0
    0.5660    2.0490    0.5660 C   0  0
    1.1430    2.0550   -1.9140 C   0  0
    0.5450   -5.0080    1.1600 C   0  0
   -0.5140   -3.1500    2.4610 C   0  0
    1.3750   -4.6480   -1.1020 C   0  0
    1.1990   -2.4080   -2.2030 C   0  0
    0.1370    3.4980    0.4750 C   0  0
    1.1620   -5.5000   -0.0040 C   0  0
   -1.1230    3.9900    0.4390 C   0  0
    0.9810    4.6230    0.4100 C   0  0
    1.5920   -6.9220   -0.0720 C   0  0
   -1.1480    5.3600    0.3530 C   0  0
   -2.3220    3.2350    0.4780 C   0  0
    0.1700    5.7830    0.3360 N   0  0
   -2.3670    6.0760    0.3050 C   0  0
   -3.5610    3.9280    0.4320 C   0  0
   -3.5820    5.3460    0.3440 C   0  0
    1.8050   -0.0490   -0.2890 H   0  0
   -0.6450    1.2070   -1.0230 H   0  0
    1.6000    1.9960    0.9100 H   0  0
   -0.0160    1.5450    1.3380 H   0  0
    1.0680    1.4850   -2.8400 H   0  0
    0.7250    3.0490   -2.0740 H   0  0
    2.1990    2.1720   -1.6760 H   0  0
    0.3810   -5.6640    2.0040 H   0  0
   -1.3910   -2.5270    2.2770 H   0  0
    0.2010   -2.5580    3.0310 H   0  0
   -0.8260   -3.9900    3.0820 H   0  0
    1.8500   -5.0270   -1.9940 H   0  0
    0.3520   -1.7650   -2.4470 H   0  0
    1.4280   -3.0080   -3.0820 H   0  0
    2.0570   -1.7650   -2.0040 H   0  0
    2.0630    4.6410    0.4140 H   0  0
    2.0590   -7.2050   -1.0160 H   0  0
    0.7270   -7.5700    0.0780 H   0  0
    2.3030   -7.1270    0.7270 H   0  0
   -2.3050    2.1560    0.5450 H   0  0
    0.4920    6.7210    0.2790 H   0  0
   -2.3770    7.1550    0.2380 H   0  0
   -4.4860    3.3750    0.4610 H   0  0
   -4.5270    5.8670    0.3090 H   0  0
  1  2  2  0
  1  3  2  0
  1  4  1  0
  1  5  1  0
  4  6  1  0
  5  7  2  0
  5  8  1  0
  6  9  1  0
  6 10  1  0
  7 11  1  0
  7 12  1  0
  8 13  2  0
  8 14  1  0
  9 15  1  0
 11 16  2  0
 15 17  1  0
 15 18  2  0
 16 19  1  0
 17 20  1  0
 17 21  2  0
 18 22  1  0
 20 23  2  0
 21 24  1  0
 23 25  1  0
 13 16  1  0
 20 22  1  0
 24 25  2  0
  4 26  1  0
  6 27  1  0
  9 28  1  0
  9 29  1  0
 10 30  1  0
 10 31  1  0
 10 32  1  0
 11 33  1  0
 12 34  1  0
 12 35  1  0
 12 36  1  0
 13 37  1  0
 14 38  1  0
 14 39  1  0
 14 40  1  0
 18 41  1  0
 19 42  1  0
 19 43  1  0
 19 44  1  0
 21 45  1  0
 22 46  1  0
 23 47  1  0
 24 48  1  0
 25 49  1  0
M  END
> <Name>
CHEMBL243863

> <IC50 nM>
2000

> <Molecule_ChEMBL_ID>
CHEMBL243863

> <Smiles>
Cc1cc(C)c(S(=O)(=O)N[C@H](C)Cc2c[nH]c3ccccc23)c(C)c1

$$$$
CHEMBL243025
  SciTegic08162514323D

 41 43  0  0  1  0            999 V2000
    1.9140   -4.7620   -1.7360 Cl  0  0
    0.3440   -4.8010   -1.0150 C   0  0
   -0.0200   -3.9750    0.0800 C   0  0
   -0.5960   -5.6970   -1.5580 C   0  0
    0.8930   -3.0900    0.6170 N   0  0
   -1.3300   -4.0660    0.6190 C   0  0
   -1.8910   -5.7830   -1.0230 C   0  0
    0.6500   -1.7460    0.5720 C   0  0
   -1.8630   -3.1050    1.9510 Cl  0  0
   -2.2540   -4.9710    0.0630 C   0  0
   -3.0270   -6.8770   -1.6950 Cl  0  0
   -0.3610   -1.3260    0.0630 O   0  0
    1.5640   -0.8850    1.1100 N   0  0
    1.3050    0.5630    1.0610 C   0  0  2  0  0  0
    1.4750    1.1020   -0.3610 C   0  0
    2.1660    1.3070    2.0800 C   0  0
    1.0450    2.5530   -0.4510 C   0  0
   -0.2150    3.0430   -0.4880 C   0  0
    1.8910    3.6760   -0.5170 C   0  0
   -0.2400    4.4120   -0.5720 C   0  0
   -1.4140    2.2870   -0.4470 C   0  0
    1.0780    4.8360   -0.5920 N   0  0
   -1.4590    5.1310   -0.6230 C   0  0
   -2.6520    2.9810   -0.4960 C   0  0
   -2.6740    4.3990   -0.5820 C   0  0
   -0.3220   -6.3280   -2.3920 H   0  0
    1.7300   -3.4340    1.0410 H   0  0
   -3.2540   -5.0410    0.4710 H   0  0
    2.4000   -1.2340    1.5290 H   0  0
    0.2560    0.5780    1.3560 H   0  0
    0.9000    0.5080   -1.0700 H   0  0
    2.5120    1.0100   -0.6870 H   0  0
    2.0250    0.8930    3.0780 H   0  0
    3.2210    1.2440    1.8150 H   0  0
    1.8930    2.3610    2.1170 H   0  0
    2.9730    3.6950   -0.5140 H   0  0
   -1.3970    1.2090   -0.3830 H   0  0
    1.4000    5.7760   -0.6460 H   0  0
   -1.4690    6.2090   -0.6890 H   0  0
   -3.5780    2.4280   -0.4650 H   0  0
   -3.6190    4.9200   -0.6190 H   0  0
  1  2  1  0
  2  3  2  0
  2  4  1  0
  3  5  1  0
  3  6  1  0
  4  7  2  0
  5  8  1  0
  6  9  1  0
  6 10  2  0
  7 11  1  0
  8 12  2  0
  8 13  1  0
 13 14  1  0
 14 15  1  0
 14 16  1  0
 15 17  1  0
 17 18  1  0
 17 19  2  0
 18 20  1  0
 18 21  2  0
 19 22  1  0
 20 23  2  0
 21 24  1  0
 23 25  1  0
  7 10  1  0
 20 22  1  0
 24 25  2  0
  4 26  1  0
  5 27  1  0
 10 28  1  0
 13 29  1  0
 14 30  1  0
 15 31  1  0
 15 32  1  0
 16 33  1  0
 16 34  1  0
 16 35  1  0
 19 36  1  0
 21 37  1  0
 22 38  1  0
 23 39  1  0
 24 40  1  0
 25 41  1  0
M  END
> <Name>
CHEMBL243025

> <IC50 nM>
2000

> <Molecule_ChEMBL_ID>
CHEMBL243025

> <Smiles>
CC(Cc1c[nH]c2ccccc12)NC(=O)Nc1c(Cl)cc(Cl)cc1Cl

$$$$
CHEMBL242812
  SciTegic08162514323D

 67 69  0  0  1  0            999 V2000
    0.8980    1.1930    0.8280 S   0  0
    2.2580    1.6390    0.5780 O   0  0
    0.2520    1.9020    1.9180 O   0  0
   -0.0080    1.5880   -0.6030 N   0  0
    0.9430   -0.4880    1.2270 C   0  0
    0.5760    1.2560   -1.8930 C   0  0  2  0  0  0
    2.1520   -1.0840    1.6310 C   0  0
   -0.2310   -1.2620    1.1450 C   0  0
   -0.4450    1.4610   -3.0120 C   0  0
    1.1500   -0.1620   -1.8710 C   0  0
    2.1870   -2.4510    1.9550 C   0  0
    3.3960   -0.2730    1.7190 C   0  0
   -0.1930   -2.6290    1.4690 C   0  0
   -1.5120   -0.6410    0.7190 C   0  0
   -0.8770    2.9100   -3.1040 C   0  0
    1.0160   -3.2250    1.8750 C   0  0
    3.2520    0.8730    2.7230 C   0  0
    4.6190   -1.1470    1.9940 C   0  0
   -2.5800   -1.6950    0.4280 C   0  0
   -1.9850    0.4180    1.7150 C   0  0
   -2.1370    3.4020   -3.1390 C   0  0
   -0.0310    4.0350   -3.1680 C   0  0
    1.0530   -4.6700    2.2170 C   0  0
   -2.1620    4.7720   -3.2230 C   0  0
   -3.3340    2.6460   -3.1000 C   0  0
   -0.8420    5.1950   -3.2420 N   0  0
    0.0760   -5.0080    3.3440 C   0  0
    0.8530   -5.5470    0.9810 C   0  0
   -3.3790    5.4880   -3.2730 C   0  0
   -4.5720    3.3400   -3.1460 C   0  0
   -4.5960    4.7580   -3.2340 C   0  0
   -0.2330    2.5940   -0.6020 H   0  0
    1.3750    1.9940   -1.9610 H   0  0
   -1.3220    0.8300   -2.8540 H   0  0
   -0.0370    1.1430   -3.9710 H   0  0
    1.9470   -0.2660   -1.1350 H   0  0
    1.5600   -0.4260   -2.8460 H   0  0
    0.3750   -0.8890   -1.6270 H   0  0
    3.1150   -2.9080    2.2660 H   0  0
    3.4160    0.1090    0.6990 H   0  0
   -1.0940   -3.2250    1.4080 H   0  0
   -1.1700   -0.1740   -0.2050 H   0  0
    3.7890    1.7640    2.4000 H   0  0
    3.6430    0.5820    3.6970 H   0  0
    2.2030    1.1430    2.8500 H   0  0
    4.7090   -1.9610    1.2740 H   0  0
    4.5620   -1.5880    2.9900 H   0  0
    5.5330   -0.5570    1.9450 H   0  0
   -2.2310   -2.4410   -0.2850 H   0  0
   -3.4770   -1.2320    0.0140 H   0  0
   -2.8670   -2.2150    1.3420 H   0  0
   -1.3650    0.4360    2.6130 H   0  0
   -3.0120    0.2270    2.0240 H   0  0
   -1.9490    1.4120    1.2680 H   0  0
    1.0510    4.0530   -3.1640 H   0  0
    2.0840   -4.7310    2.5680 H   0  0
   -3.3190    1.5680   -3.0330 H   0  0
   -0.5220    6.1330   -3.2990 H   0  0
    0.2660   -4.4140    4.2360 H   0  0
    0.1560   -6.0610    3.6210 H   0  0
   -0.9510   -4.8240    3.0290 H   0  0
    1.5590   -5.2740    0.1950 H   0  0
    0.9900   -6.6000    1.2290 H   0  0
   -0.1520   -5.4280    0.5800 H   0  0
   -3.3890    6.5660   -3.3400 H   0  0
   -5.5000    2.7850   -3.1170 H   0  0
   -5.5390    5.2790   -3.2700 H   0  0
  1  2  2  0
  1  3  2  0
  1  4  1  0
  1  5  1  0
  4  6  1  0
  5  7  2  0
  5  8  1  0
  6  9  1  0
  6 10  1  0
  7 11  1  0
  7 12  1  0
  8 13  2  0
  8 14  1  0
  9 15  1  0
 11 16  2  0
 12 17  1  0
 12 18  1  0
 14 19  1  0
 14 20  1  0
 15 21  1  0
 15 22  2  0
 16 23  1  0
 21 24  1  0
 21 25  2  0
 22 26  1  0
 23 27  1  0
 23 28  1  0
 24 29  2  0
 25 30  1  0
 29 31  1  0
 13 16  1  0
 24 26  1  0
 30 31  2  0
  4 32  1  0
  6 33  1  0
  9 34  1  0
  9 35  1  0
 10 36  1  0
 10 37  1  0
 10 38  1  0
 11 39  1  0
 12 40  1  0
 13 41  1  0
 14 42  1  0
 17 43  1  0
 17 44  1  0
 17 45  1  0
 18 46  1  0
 18 47  1  0
 18 48  1  0
 19 49  1  0
 19 50  1  0
 19 51  1  0
 20 52  1  0
 20 53  1  0
 20 54  1  0
 22 55  1  0
 23 56  1  0
 25 57  1  0
 26 58  1  0
 27 59  1  0
 27 60  1  0
 27 61  1  0
 28 62  1  0
 28 63  1  0
 28 64  1  0
 29 65  1  0
 30 66  1  0
 31 67  1  0
M  END
> <Name>
CHEMBL242812

> <IC50 nM>
67

> <Molecule_ChEMBL_ID>
CHEMBL242812

> <Smiles>
CC(Cc1c[nH]c2ccccc12)NS(=O)(=O)c1c(C(C)C)cc(C(C)C)cc1C(C)C

$$$$
CHEMBL420001
  SciTegic08162514323D

 51 53  0  0  0  0            999 V2000
    4.7420   -0.4280   -0.8320 S   0  0
    4.9080   -1.8130   -1.2420 O   0  0
    3.9180    0.3440   -1.7440 O   0  0
    4.0040   -0.4340    0.6090 N   0  0
    6.3550    0.3380   -0.7210 C   0  0
    2.6910   -0.0430    0.7090 C   0  0
    1.6700   -0.7030   -0.0160 C   0  0
    2.3650    1.0370    1.5510 C   0  0
    0.3280   -0.2720    0.1130 C   0  0
    2.0080   -1.8520   -0.9140 C   0  0
    1.0350    1.4610    1.6760 C   0  0
   -0.6880   -0.8870   -0.5740 N   0  0
    0.0190    0.8110    0.9590 C   0  0
   -0.9530   -0.5650   -1.9820 C   0  0
   -1.5290   -1.8850    0.1000 C   0  0
   -1.8440    0.6190   -2.1150 C   0  0
   -2.0590   -1.3730    1.3910 C   0  0
   -1.3010    1.9180   -2.1950 C   0  0
   -3.2380    0.4390   -2.1600 C   0  0
   -3.2500   -0.6250    1.4180 C   0  0
   -1.3690   -1.6370    2.5880 C   0  0
    0.0160    2.1050   -2.1520 F   0  0
   -2.1540    3.0290   -2.3200 C   0  0
   -4.0900    1.5510   -2.2850 C   0  0
   -3.7500   -0.1430    2.6390 C   0  0
   -1.8690   -1.1540    3.8110 C   0  0
   -3.5470    2.8460   -2.3650 C   0  0
   -3.0610   -0.4060    3.8360 C   0  0
    4.5020   -0.7210    1.4280 H   0  0
    6.9000    0.3730   -1.6640 H   0  0
    6.9670   -0.2070   -0.0020 H   0  0
    6.2480    1.3610   -0.3610 H   0  0
    3.1330    1.5550    2.1130 H   0  0
    2.7910   -2.4550   -0.4530 H   0  0
    1.1050   -2.4240   -1.1250 H   0  0
    2.3930   -1.4730   -1.8590 H   0  0
    0.7910    2.2910    2.3240 H   0  0
   -1.0000    1.1540    1.0700 H   0  0
   -1.4180   -1.4240   -2.4670 H   0  0
   -0.0080   -0.3650   -2.4900 H   0  0
   -0.9430   -2.7870    0.2790 H   0  0
   -2.3610   -2.1520   -0.5530 H   0  0
   -3.6620   -0.5530   -2.1000 H   0  0
   -3.7850   -0.4200    0.5020 H   0  0
   -0.4550   -2.2110    2.5760 H   0  0
   -1.7440    4.0250   -2.3810 H   0  0
   -5.1600    1.4100   -2.3200 H   0  0
   -4.6640    0.4340    2.6580 H   0  0
   -1.3400   -1.3570    4.7290 H   0  0
   -4.2010    3.6990   -2.4610 H   0  0
   -3.4430   -0.0330    4.7740 H   0  0
  1  2  2  0
  1  3  2  0
  1  4  1  0
  1  5  1  0
  4  6  1  0
  6  7  2  0
  6  8  1  0
  7  9  1  0
  7 10  1  0
  8 11  2  0
  9 12  1  0
  9 13  2  0
 12 14  1  0
 12 15  1  0
 14 16  1  0
 15 17  1  0
 16 18  2  0
 16 19  1  0
 17 20  2  0
 17 21  1  0
 18 22  1  0
 18 23  1  0
 19 24  2  0
 20 25  1  0
 21 26  2  0
 23 27  2  0
 25 28  2  0
 11 13  1  0
 24 27  1  0
 26 28  1  0
  4 29  1  0
  5 30  1  0
  5 31  1  0
  5 32  1  0
  8 33  1  0
 10 34  1  0
 10 35  1  0
 10 36  1  0
 11 37  1  0
 13 38  1  0
 14 39  1  0
 14 40  1  0
 15 41  1  0
 15 42  1  0
 19 43  1  0
 20 44  1  0
 21 45  1  0
 23 46  1  0
 24 47  1  0
 25 48  1  0
 26 49  1  0
 27 50  1  0
 28 51  1  0
M  END
> <Name>
CHEMBL420001

> <IC50 nM>
14

> <Molecule_ChEMBL_ID>
CHEMBL420001

> <Smiles>
Cc1c(NS(C)(=O)=O)cccc1N(Cc1ccccc1)Cc1ccccc1F

$$$$
CHEMBL553019
  SciTegic08162514323D

 82 85  0  0  1  0            999 V2000
    7.5100    3.1470    0.1780 S   0  0
    7.3770    1.4920    0.4370 C   0  0
    6.2030    0.7990    0.3490 N   0  0
    8.4300    0.6860    0.7620 N   0  0
    4.9650    1.5160    0.0100 C   0  0
    9.7720    1.2680    0.8960 C   0  0
    3.7730    0.5610   -0.0370 C   0  0
   10.8010    0.1970    1.2620 C   0  0
    2.2440    1.4450   -0.4570 S   0  0
   12.1430    0.7810    1.3960 N   0  0
    1.0940    0.0430   -0.4180 C   0  0
   13.1950   -0.0250    1.7210 C   0  0
   -0.2950    0.5260   -0.7440 C   0  0
   13.0250   -1.2110    1.8920 O   0  0
   14.5630    0.5900    1.8550 C   0  0
   -0.5220    1.6990   -0.9180 O   0  0
   -1.3970   -0.5040   -0.8520 C   0  0  2  0  0  0
   -1.2930   -1.0920   -2.1390 O   0  0
   -2.8200    0.0630   -0.6190 C   0  0  2  0  0  0
   -1.3380   -1.5960    0.2460 C   0  0  1  0  0  0
   -3.6450   -1.2260   -0.4900 C   0  0  1  0  0  0
   -3.4590    0.9010   -1.7420 C   0  0
   -2.7850    0.8380    0.7110 C   0  0
   -2.7810   -2.0990    0.4200 C   0  0
   -0.3500   -2.7340   -0.0060 C   0  0
   -5.0840   -0.9430   -0.0220 C   0  0  1  0  0  0
   -4.9420    1.2350   -1.4420 C   0  0  1  0  0  0
   -5.8070   -0.0100   -1.0370 C   0  0  1  0  0  0
   -5.8560   -2.2660    0.1680 C   0  0
   -4.9880    2.2460   -0.4510 O   0  0
   -5.9380   -0.7260   -2.2130 F   0  0
   -7.2620    0.3110   -0.5430 C   0  0  2  0  0  0
   -7.3030   -2.0210    0.6230 C   0  0
   -8.0180   -0.9820   -0.2210 C   0  0
   -7.9960    1.1990   -1.5410 C   0  0
   -7.2560    1.0840    0.7830 C   0  0
   -9.2800   -1.2050   -0.6510 C   0  0
   -9.2540    0.9510   -1.9530 C   0  0
   -9.9870   -0.2280   -1.4830 C   0  0
  -11.1510   -0.3890   -1.7760 O   0  0
    6.1860   -0.1850    0.5150 H   0  0
    8.2790   -0.2950    0.9020 H   0  0
    4.7970    2.3090    0.7400 H   0  0
    5.0940    2.0180   -0.9490 H   0  0
    9.7460    2.0530    1.6540 H   0  0
   10.0430    1.7620   -0.0370 H   0  0
    3.9430   -0.2340   -0.7620 H   0  0
    3.6480    0.0550    0.9220 H   0  0
   10.8260   -0.5860    0.5040 H   0  0
   10.5290   -0.2970    2.1930 H   0  0
   12.2850    1.7620    1.2540 H   0  0
    1.4060   -0.7030   -1.1470 H   0  0
    1.1050   -0.4080    0.5720 H   0  0
   15.3400   -0.1310    2.1150 H   0  0
   14.5490    1.3580    2.6270 H   0  0
   14.8500    1.0650    0.9180 H   0  0
   -0.3950   -1.4450   -2.2210 H   0  0
   -1.0490   -1.1310    1.1780 H   0  0
   -3.6990   -1.7150   -1.4530 H   0  0
   -3.4160    0.3460   -2.6820 H   0  0
   -2.8810    1.8150   -1.9080 H   0  0
   -3.7870    1.0390    1.0900 H   0  0
   -2.2770    1.7950    0.5860 H   0  0
   -2.2480    0.2720    1.4710 H   0  0
   -2.8990   -3.1440    0.1620 H   0  0
   -3.0880   -1.9940    1.4510 H   0  0
   -0.3500   -3.4350    0.8280 H   0  0
   -0.6020   -3.2690   -0.9220 H   0  0
    0.6640   -2.3480   -0.1150 H   0  0
   -5.0450   -0.4390    0.9470 H   0  0
   -5.3580    1.6940   -2.3400 H   0  0
   -5.8600   -2.8400   -0.7600 H   0  0
   -5.3580   -2.8910    0.9100 H   0  0
   -5.3620    3.0370   -0.8690 H   0  0
   -7.8480   -2.9650    0.6170 H   0  0
   -7.2990   -1.6800    1.6580 H   0  0
   -7.4980    2.0700   -1.9440 H   0  0
   -8.2130    1.0080    1.3030 H   0  0
   -7.0550    2.1410    0.6130 H   0  0
   -6.4850    0.7010    1.4510 H   0  0
   -9.7850   -2.1190   -0.3770 H   0  0
   -9.7250    1.6350   -2.6450 H   0  0
  1  2  2  0
  2  3  1  0
  2  4  1  0
  3  5  1  0
  4  6  1  0
  5  7  1  0
  6  8  1  0
  7  9  1  0
  8 10  1  0
  9 11  1  0
 10 12  1  0
 11 13  1  0
 12 14  2  0
 12 15  1  0
 13 16  2  0
 13 17  1  0
 17 18  1  0
 17 19  1  0
 17 20  1  0
 19 21  1  0
 19 22  1  0
 19 23  1  0
 20 24  1  0
 20 25  1  0
 21 26  1  0
 22 27  1  0
 26 28  1  0
 26 29  1  0
 27 30  1  0
 28 31  1  0
 28 32  1  0
 29 33  1  0
 32 34  1  0
 32 35  1  0
 32 36  1  0
 34 37  2  0
 35 38  2  0
 37 39  1  0
 39 40  2  0
 21 24  1  0
 27 28  1  0
 33 34  1  0
 38 39  1  0
  3 41  1  0
  4 42  1  0
  5 43  1  0
  5 44  1  0
  6 45  1  0
  6 46  1  0
  7 47  1  0
  7 48  1  0
  8 49  1  0
  8 50  1  0
 10 51  1  0
 11 52  1  0
 11 53  1  0
 15 54  1  0
 15 55  1  0
 15 56  1  0
 18 57  1  0
 20 58  1  0
 21 59  1  0
 22 60  1  0
 22 61  1  0
 23 62  1  0
 23 63  1  0
 23 64  1  0
 24 65  1  0
 24 66  1  0
 25 67  1  0
 25 68  1  0
 25 69  1  0
 26 70  1  0
 27 71  1  0
 29 72  1  0
 29 73  1  0
 30 74  1  0
 33 75  1  0
 33 76  1  0
 35 77  1  0
 36 78  1  0
 36 79  1  0
 36 80  1  0
 37 81  1  0
 38 82  1  0
M  END
> <Name>
CHEMBL553019

> <IC50 nM>
9.8

> <Molecule_ChEMBL_ID>
CHEMBL553019

> <Smiles>
CC(=O)NCCNC(=S)NCCSCC(=O)[C@@]1(O)[C@H](C)C[C@H]2[C@@H]3CCC4=CC(=O)C=C[C@]4(C)[C@@]3(F)[C@@H](O)C[C@@]21C

$$$$
CHEMBL506241
  SciTegic08162514323D

 76 79  0  0  1  0            999 V2000
   -2.9370    0.6090   -0.0370 F   0  0
   -2.7440   -0.0430    1.1680 C   0  0  2  0  0  0
   -4.1660   -0.2700    1.7770 C   0  0  2  0  0  0
   -1.7850    0.9020    1.9510 C   0  0  1  0  0  0
   -2.0620   -1.4180    0.8870 C   0  0  2  0  0  0
   -5.0270   -0.9630    0.7170 C   0  0
   -4.8180    1.0100    2.2950 C   0  0
   -4.1050   -1.2110    2.9880 C   0  0
   -1.6350    0.4690    3.2910 O   0  0
   -0.3910    1.0170    1.2830 C   0  0
   -0.7540   -1.1720    0.1110 C   0  0  1  0  0  0
   -3.0000   -2.4670    0.2380 C   0  0
   -6.3500   -0.7190    0.6040 C   0  0
   -4.3570   -1.9280   -0.2420 C   0  0
   -6.1350    1.2560    2.1480 C   0  0
    0.2330   -0.3540    0.9650 C   0  0  1  0  0  0
    0.0960   -2.3810   -0.2680 C   0  0
   -6.9960    0.3300    1.4020 C   0  0
    1.4430   -0.3420    0.0120 C   0  0  1  0  0  0
    0.6410   -1.0880    2.2520 C   0  0
    1.4960   -1.7930   -0.5160 C   0  0  1  0  0  0
   -8.1990    0.4370    1.4320 O   0  0
    1.1680    0.5210   -1.0860 O   0  0
    2.7250    0.1620    0.6350 C   0  0
    2.5370   -2.6780    0.1700 C   0  0
    2.0820    0.4260   -2.0470 C   0  0
    3.7740   -0.4080    0.4490 O   0  0
    2.6540    1.3960    1.4940 C   0  0
    2.0000   -0.3320   -2.9840 O   0  0
    3.1600    1.2560   -1.9240 N   0  0
    2.0450    2.4390    0.7700 O   0  0
    4.2210    1.2170   -2.9410 C   0  0
    3.4380    1.9920   -4.0020 C   0  0
    4.5200   -0.2210   -3.3650 C   0  0
    5.4670    1.9630   -2.4650 C   0  0
    3.3870    3.4940   -3.7150 C   0  0
   -2.2070    1.9040    2.0080 H   0  0
   -1.7810   -1.8500    1.8480 H   0  0
   -4.2250    1.7500    2.8070 H   0  0
   -5.1000   -1.4810    3.3420 H   0  0
   -3.5740   -0.7400    3.8150 H   0  0
   -3.5800   -2.1310    2.7340 H   0  0
   -2.2030    1.0310    3.8380 H   0  0
   -0.5080    1.5840    0.3590 H   0  0
    0.2870    1.6070    1.9020 H   0  0
   -0.9920   -0.6430   -0.8010 H   0  0
   -3.1970   -3.2480    0.9750 H   0  0
   -2.5080   -2.9770   -0.5900 H   0  0
   -6.9450   -1.2870   -0.0960 H   0  0
   -4.2130   -1.4140   -1.1930 H   0  0
   -5.0210   -2.7660   -0.4510 H   0  0
   -6.5630    2.1480    2.5800 H   0  0
    0.0980   -3.1020    0.5390 H   0  0
   -0.2850   -2.8850   -1.1450 H   0  0
    0.9610   -2.1110    2.0530 H   0  0
   -0.1950   -1.1330    2.9510 H   0  0
    1.4610   -0.5720    2.7480 H   0  0
    1.7070   -1.7850   -1.5760 H   0  0
    3.5060   -2.6230   -0.3260 H   0  0
    2.2190   -3.7210    0.1680 H   0  0
    2.6760   -2.3750    1.2090 H   0  0
    3.6600    1.7150    1.7680 H   0  0
    2.0490    1.1990    2.3790 H   0  0
    3.2290    1.8830   -1.1480 H   0  0
    2.0370    3.2210    1.3440 H   0  0
    3.8420    1.8050   -4.9960 H   0  0
    2.4320    1.5880   -4.1110 H   0  0
    3.8670   -0.5510   -4.1740 H   0  0
    4.3870   -0.9060   -2.5290 H   0  0
    5.5510   -0.3150   -3.7110 H   0  0
    5.2170    2.9160   -1.9980 H   0  0
    6.1370    2.1680   -3.2990 H   0  0
    6.0160    1.3690   -1.7340 H   0  0
    2.6110    3.9750   -4.3130 H   0  0
    3.1860    3.6780   -2.6600 H   0  0
    4.3380    3.9670   -3.9610 H   0  0
  2  1  1  0
  2  3  1  0
  2  4  1  0
  2  5  1  0
  3  6  1  0
  3  7  1  0
  3  8  1  0
  4  9  1  0
  4 10  1  0
  5 11  1  0
  5 12  1  0
  6 13  2  0
  6 14  1  0
  7 15  2  0
 10 16  1  0
 11 17  1  0
 13 18  1  0
 16 19  1  0
 16 20  1  0
 17 21  1  0
 18 22  2  0
 19 23  1  0
 19 24  1  0
 21 25  1  0
 23 26  1  0
 24 27  2  0
 24 28  1  0
 26 29  2  0
 26 30  1  0
 28 31  1  0
 30 32  1  0
 32 33  1  0
 32 34  1  0
 32 35  1  0
 33 36  1  0
 11 16  1  0
 12 14  1  0
 15 18  1  0
 19 21  1  0
  4 37  1  0
  5 38  1  0
  7 39  1  0
  8 40  1  0
  8 41  1  0
  8 42  1  0
  9 43  1  0
 10 44  1  0
 10 45  1  0
 11 46  1  0
 12 47  1  0
 12 48  1  0
 13 49  1  0
 14 50  1  0
 14 51  1  0
 15 52  1  0
 17 53  1  0
 17 54  1  0
 20 55  1  0
 20 56  1  0
 20 57  1  0
 21 58  1  0
 25 59  1  0
 25 60  1  0
 25 61  1  0
 28 62  1  0
 28 63  1  0
 30 64  1  0
 31 65  1  0
 33 66  1  0
 33 67  1  0
 34 68  1  0
 34 69  1  0
 34 70  1  0
 35 71  1  0
 35 72  1  0
 35 73  1  0
 36 74  1  0
 36 75  1  0
 36 76  1  0
M  END
> <Name>
CHEMBL506241

> <IC50 nM>
55.1

> <Molecule_ChEMBL_ID>
CHEMBL506241

> <Smiles>
CCC(C)(C)NC(=O)O[C@]1(C(=O)CO)[C@@H](C)C[C@H]2[C@@H]3CCC4=CC(=O)C=C[C@]4(C)[C@@]3(F)[C@@H](O)C[C@@]21C

$$$$
CHEMBL4460554
  SciTegic08162514323D

 81 85  0  0  1  0            999 V2000
   -6.7110   -0.8670   -2.2340 O   0  0
   -5.7030   -0.6170   -1.6170 C   0  0
   -5.0550   -1.6500   -0.7910 C   0  0
   -5.0680    0.7480   -1.6680 C   0  0
   -3.8590   -1.4650   -0.1900 C   0  0
   -3.5430    0.6370   -1.5980 C   0  0
   -3.0530   -0.1800   -0.3770 C   0  0  2  0  0  0
   -3.2930   -2.5410    0.7150 C   0  0
   -1.5180   -0.4320   -0.4610 C   0  0  1  0  0  0
   -1.7850   -2.7440    0.5350 C   0  0
   -0.6680    0.8710   -0.5220 C   0  0  1  0  0  0
   -1.0250   -1.4120    0.6310 C   0  0  1  0  0  0
   -1.0040    1.8420    0.5620 C   0  0
    0.8500    0.5740   -0.5740 C   0  0
    0.4790   -1.6640    0.4320 C   0  0  1  0  0  0
   -1.7540    1.4200    1.6740 C   0  0
   -0.5720    3.1760    0.4710 C   0  0
    1.3050   -0.3750    0.5550 C   0  0  1  0  0  0
    1.1680   -2.5920    1.4340 C   0  0
   -2.0720    2.3320    2.6950 C   0  0
   -0.8890    4.0900    1.4900 C   0  0
    2.7500   -0.9470    0.5000 C   0  0  2  0  0  0
    1.0800    0.2540    1.9390 C   0  0
    2.6470   -2.1800    1.4260 C   0  0
   -1.6390    3.6700    2.6050 C   0  0
    3.6990   -0.0200    1.0020 O   0  0
    3.1760   -1.3320   -0.8560 C   0  0
   -1.9470    4.5610    3.6000 N   0  0
    3.5310   -1.6450   -1.9470 C   0  0
   -1.5080    5.9610    3.5270 C   0  0
   -2.7320    4.1190    4.7640 C   0  0
    3.9730   -2.0290   -3.2850 C   0  0
    5.3750   -2.6290   -3.1900 C   0  0
    2.9960   -3.0610   -3.8500 C   0  0
    3.9940   -0.7850   -4.1740 C   0  0
    6.4020   -1.6450   -2.6290 C   0  0
   -5.5700   -2.5920   -0.6600 H   0  0
   -5.3670    1.2620   -2.5820 H   0  0
   -5.4400    1.3440   -0.8340 H   0  0
   -3.1190    1.6430   -1.5740 H   0  0
   -3.1800    0.1740   -2.5160 H   0  0
   -3.2560    0.4160    0.5120 H   0  0
   -3.4940   -2.2580    1.7500 H   0  0
   -3.8070   -3.4900    0.5530 H   0  0
   -1.3500   -0.9400   -1.4120 H   0  0
   -1.4280   -3.4450    1.2910 H   0  0
   -1.5980   -3.2110   -0.4340 H   0  0
   -0.9100    1.3850   -1.4510 H   0  0
   -1.2050   -0.9820    1.6170 H   0  0
    1.4340    1.4980   -0.5490 H   0  0
    1.0630    0.1250   -1.5450 H   0  0
    0.6110   -2.0900   -0.5550 H   0  0
   -2.0880    0.3960    1.7480 H   0  0
    0.0040    3.5040   -0.3830 H   0  0
    0.7540   -2.4570    2.4220 H   0  0
    1.0410   -3.6310    1.1700 H   0  0
   -2.6480    1.9900    3.5430 H   0  0
   -0.5470    5.1110    1.4040 H   0  0
    1.7030   -0.2110    2.7030 H   0  0
    0.0390    0.1480    2.2480 H   0  0
    1.3140    1.3180    1.9220 H   0  0
    2.9450   -1.9380    2.4370 H   0  0
    3.2870   -2.9960    1.1130 H   0  0
    4.5490   -0.4810    1.0550 H   0  0
   -0.9320    6.2130    2.6370 H   0  0
   -0.8930    6.1880    4.3980 H   0  0
   -2.3790    6.6130    3.5550 H   0  0
   -3.0230    3.0680    4.7480 H   0  0
   -3.6430    4.7170    4.8300 H   0  0
   -2.1540    4.2910    5.6720 H   0  0
    5.3610   -3.5490   -2.6040 H   0  0
    5.6970   -3.0120   -4.1580 H   0  0
    2.9510   -3.9570   -3.2310 H   0  0
    3.2930   -3.3630   -4.8540 H   0  0
    1.9900   -2.6470   -3.9100 H   0  0
    4.5860    0.0180   -3.7360 H   0  0
    2.9840   -0.4060   -4.3320 H   0  0
    4.4200   -1.0180   -5.1510 H   0  0
    7.3750   -2.1250   -2.5180 H   0  0
    6.5060   -0.7810   -3.2850 H   0  0
    6.0940   -1.2830   -1.6490 H   0  0
  1  2  2  0
  2  3  1  0
  2  4  1  0
  3  5  2  0
  4  6  1  0
  5  7  1  0
  5  8  1  0
  9  7  1  0
  8 10  1  0
  9 11  1  0
  9 12  1  0
 11 13  1  0
 11 14  1  0
 12 15  1  0
 13 16  2  0
 13 17  1  0
 14 18  1  0
 15 19  1  0
 16 20  1  0
 17 21  2  0
 18 22  1  0
 18 23  1  0
 19 24  1  0
 20 25  2  0
 22 26  1  0
 22 27  1  0
 25 28  1  0
 27 29  3  0
 28 30  1  0
 28 31  1  0
 29 32  1  0
 32 33  1  0
 32 34  1  0
 32 35  1  0
 33 36  1  0
  7  6  1  0
 12 10  1  0
 15 18  1  0
 21 25  1  0
 22 24  1  0
  3 37  1  0
  4 38  1  0
  4 39  1  0
  6 40  1  0
  6 41  1  0
  7 42  1  0
  8 43  1  0
  8 44  1  0
  9 45  1  0
 10 46  1  0
 10 47  1  0
 11 48  1  0
 12 49  1  0
 14 50  1  0
 14 51  1  0
 15 52  1  0
 16 53  1  0
 17 54  1  0
 19 55  1  0
 19 56  1  0
 20 57  1  0
 21 58  1  0
 23 59  1  0
 23 60  1  0
 23 61  1  0
 24 62  1  0
 24 63  1  0
 26 64  1  0
 30 65  1  0
 30 66  1  0
 30 67  1  0
 31 68  1  0
 31 69  1  0
 31 70  1  0
 33 71  1  0
 33 72  1  0
 34 73  1  0
 34 74  1  0
 34 75  1  0
 35 76  1  0
 35 77  1  0
 35 78  1  0
 36 79  1  0
 36 80  1  0
 36 81  1  0
M  END
> <Name>
CHEMBL4460554

> <IC50 nM>
12.7

> <Molecule_ChEMBL_ID>
CHEMBL4460554

> <Smiles>
CCC(C)(C)C#C[C@]1(O)CC[C@H]2[C@@H]3CCC4=CC(=O)CC[C@@H]4[C@H]3[C@@H](c3ccc(N(C)C)cc3)C[C@@]21C

$$$$
CHEMBL4061130
  SciTegic08162514323D

 58 62  0  0  0  0            999 V2000
    2.4100   -0.6390    1.0000 S   0  0
    3.3260   -0.1270   -0.0040 O   0  0
    2.2030   -2.0740    0.9100 O   0  0
    0.9770    0.0760    0.7620 N   0  0
    3.0610   -0.2810    2.5590 C   0  0
    0.5020    0.2500   -0.5120 C   0  0
    0.1840    0.5370    1.9100 C   0  0
    3.6800    0.9590    2.7930 C   0  0
    2.9670   -1.2300    3.5920 C   0  0
   -0.4670    1.2360   -0.7750 C   0  0
    0.9830   -0.5550   -1.5610 C   0  0
   -1.1430   -0.0960    1.9430 C   0  0
    4.2090    1.2540    4.0610 C   0  0
    3.4960   -0.9430    4.8610 C   0  0
   -0.9530    1.4140   -2.0820 C   0  0
    0.4960   -0.3750   -2.8650 C   0  0
   -2.3090    0.7070    1.9320 C   0  0
   -1.2500   -1.5080    1.9860 C   0  0
    4.1150    0.2990    5.0920 C   0  0
   -0.4730    0.6090   -3.1310 C   0  0
   -3.5880    0.0960    1.9630 C   0  0
   -2.5210   -2.1270    2.0190 C   0  0
    4.6580    0.5980    6.3910 C   0  0
   -0.9300    0.7770   -4.3560 O   0  0
   -3.6950   -1.3300    2.0080 C   0  0
   -4.7600    0.8930    1.9490 C   0  0
    5.0940    0.8380    7.4380 N   0  0
   -0.0820    0.6410   -5.3560 C   0  0
   -4.9750   -1.9390    2.0430 C   0  0
   -6.0310    0.2740    1.9820 C   0  0
   -0.5020    0.0470   -6.5590 C   0  0
    1.2460    1.0860   -5.2230 C   0  0
   -6.1390   -1.1370    2.0290 C   0  0
    0.4020   -0.1000   -7.6270 C   0  0
    2.1490    0.9400   -6.2890 C   0  0
    1.7270    0.3460   -7.4900 C   0  0
    0.0680    1.6210    1.8550 H   0  0
    0.7210    0.3070    2.8320 H   0  0
    3.7480    1.6880    1.9980 H   0  0
    2.4900   -2.1840    3.4100 H   0  0
   -0.8500    1.8670    0.0180 H   0  0
    1.7290   -1.3180   -1.3790 H   0  0
    4.6840    2.2110    4.2270 H   0  0
    3.4180   -1.6820    5.6470 H   0  0
   -1.6950    2.1720   -2.2790 H   0  0
    0.8670   -0.9960   -3.6680 H   0  0
   -2.2130    1.7830    1.9000 H   0  0
   -0.3590   -2.1190    1.9920 H   0  0
   -2.5820   -3.2050    2.0530 H   0  0
   -4.6990    1.9710    1.9120 H   0  0
   -5.0780   -3.0160    2.0780 H   0  0
   -6.9240    0.8810    1.9710 H   0  0
   -1.5190   -0.2970   -6.6680 H   0  0
    1.5720    1.5410   -4.3010 H   0  0
   -7.1130   -1.6020    2.0570 H   0  0
    0.0760   -0.5550   -8.5510 H   0  0
    3.1680    1.2810   -6.1840 H   0  0
    2.4220    0.2320   -8.3110 H   0  0
  1  2  2  0
  1  3  2  0
  1  4  1  0
  1  5  1  0
  4  6  1  0
  4  7  1  0
  5  8  2  0
  5  9  1  0
  6 10  2  0
  6 11  1  0
  7 12  1  0
  8 13  1  0
  9 14  2  0
 10 15  1  0
 11 16  2  0
 12 17  2  0
 12 18  1  0
 13 19  2  0
 15 20  2  0
 17 21  1  0
 18 22  2  0
 19 23  1  0
 20 24  1  0
 21 25  1  0
 21 26  2  0
 23 27  3  0
 24 28  1  0
 25 29  2  0
 26 30  1  0
 28 31  2  0
 28 32  1  0
 29 33  1  0
 31 34  1  0
 32 35  2  0
 34 36  2  0
 14 19  1  0
 16 20  1  0
 22 25  1  0
 30 33  2  0
 35 36  1  0
  7 37  1  0
  7 38  1  0
  8 39  1  0
  9 40  1  0
 10 41  1  0
 11 42  1  0
 13 43  1  0
 14 44  1  0
 15 45  1  0
 16 46  1  0
 17 47  1  0
 18 48  1  0
 22 49  1  0
 26 50  1  0
 29 51  1  0
 30 52  1  0
 31 53  1  0
 32 54  1  0
 33 55  1  0
 34 56  1  0
 35 57  1  0
 36 58  1  0
M  END
> <Name>
CHEMBL4061130

> <IC50 nM>
30000

> <Molecule_ChEMBL_ID>
CHEMBL4061130

> <Smiles>
N#Cc1ccc(S(=O)(=O)N(Cc2ccc3ccccc3c2)c2ccc(Oc3ccccc3)cc2)cc1

$$$$
CHEMBL4097564
  SciTegic08162514323D

 54 57  0  0  0  0            999 V2000
   -2.3070    1.5680   -0.4440 S   0  0
   -3.0140    0.4570    0.1680 O   0  0
   -3.0720    2.8030   -0.4440 O   0  0
   -0.9630    1.8280    0.4260 N   0  0
   -1.9470    1.1520   -2.0780 C   0  0
   -0.4120    0.8090    1.1540 C   0  0
   -0.3380    3.1580    0.4330 C   0  0
   -1.4570    2.1310   -2.9590 C   0  0
   -2.1460   -0.1640   -2.5260 C   0  0
    0.2070    1.0780    2.3900 C   0  0
   -0.4630   -0.5140    0.6720 C   0  0
    1.1270    3.0740    0.1910 C   0  0
   -1.1660    1.7930   -4.2910 C   0  0
   -1.8530   -0.5040   -3.8580 C   0  0
    0.7740    0.0290    3.1370 C   0  0
    0.1040   -1.5590    1.4200 C   0  0
    1.6110    2.6190   -1.0470 C   0  0
    2.0290    3.4530    1.2010 C   0  0
   -1.3630    0.4750   -4.7420 C   0  0
    0.7230   -1.2910    2.6540 C   0  0
    2.9960    2.5410   -1.2760 C   0  0
    3.4140    3.3750    0.9720 C   0  0
   -1.0550    0.1150   -6.1510 C   0  0
    1.2540   -2.2720    3.3550 O   0  0
    3.8970    2.9180   -0.2660 C   0  0
    0.6370   -3.4380    3.3550 C   0  0
   -0.7670   -3.4920    3.3550 C   0  0
    1.3810   -4.6310    3.3550 C   0  0
   -1.4280   -4.7330    3.3550 C   0  0
    0.7230   -5.8730    3.3550 C   0  0
   -0.6820   -5.9240    3.3550 C   0  0
   -0.5210    3.6350    1.3960 H   0  0
   -0.7990    3.7750   -0.3380 H   0  0
   -1.3050    3.1450   -2.6140 H   0  0
   -2.5230   -0.9160   -1.8480 H   0  0
    0.2580    2.0860    2.7790 H   0  0
   -0.9330   -0.7400   -0.2760 H   0  0
   -0.7890    2.5490   -4.9650 H   0  0
   -2.0100   -1.5180   -4.1980 H   0  0
    1.2480    0.2400    4.0840 H   0  0
    0.0630   -2.5700    1.0450 H   0  0
    0.9240    2.3280   -1.8280 H   0  0
    1.6640    3.8050    2.1560 H   0  0
    3.3670    2.1890   -2.2270 H   0  0
    4.1080    3.6640    1.7500 H   0  0
   -1.2660   -0.9410   -6.3110 H   0  0
   -1.6170    0.7640   -6.8230 H   0  0
    0.0060    0.2770   -6.3420 H   0  0
    4.9610    2.8570   -0.4420 H   0  0
   -1.3460   -2.5780    3.3550 H   0  0
    2.4610   -4.5960    3.3550 H   0  0
   -2.5060   -4.7720    3.3550 H   0  0
    1.2970   -6.7870    3.3550 H   0  0
   -1.1870   -6.8790    3.3550 H   0  0
  1  2  2  0
  1  3  2  0
  1  4  1  0
  1  5  1  0
  4  6  1  0
  4  7  1  0
  5  8  2  0
  5  9  1  0
  6 10  2  0
  6 11  1  0
  7 12  1  0
  8 13  1  0
  9 14  2  0
 10 15  1  0
 11 16  2  0
 12 17  2  0
 12 18  1  0
 13 19  2  0
 15 20  2  0
 17 21  1  0
 18 22  2  0
 19 23  1  0
 20 24  1  0
 21 25  2  0
 24 26  1  0
 26 27  2  0
 26 28  1  0
 27 29  1  0
 28 30  2  0
 29 31  2  0
 14 19  1  0
 16 20  1  0
 22 25  1  0
 30 31  1  0
  7 32  1  0
  7 33  1  0
  8 34  1  0
  9 35  1  0
 10 36  1  0
 11 37  1  0
 13 38  1  0
 14 39  1  0
 15 40  1  0
 16 41  1  0
 17 42  1  0
 18 43  1  0
 21 44  1  0
 22 45  1  0
 23 46  1  0
 23 47  1  0
 23 48  1  0
 25 49  1  0
 27 50  1  0
 28 51  1  0
 29 52  1  0
 30 53  1  0
 31 54  1  0
M  END
> <Name>
CHEMBL4097564

> <IC50 nM>
2020

> <Molecule_ChEMBL_ID>
CHEMBL4097564

> <Smiles>
Cc1ccc(S(=O)(=O)N(Cc2ccccc2)c2ccc(Oc3ccccc3)cc2)cc1

$$$$
CHEMBL1254651
  SciTegic08162514323D

 52 54  0  0  1  0            999 V2000
    3.0780   -1.7850    4.9340 F   0  0
    2.0780   -1.4690    4.1130 C   0  0
    2.3240   -0.6800    2.9770 C   0  0
    0.7770   -1.9240    4.3850 C   0  0
    1.2680   -0.3440    2.1090 C   0  0
   -0.2770   -1.5880    3.5200 C   0  0
   -0.0390   -0.7990    2.3810 C   0  0
    1.5370    0.4900    0.9100 C   0  0
   -1.0370   -0.4920    1.5760 O   0  0
    1.4220   -0.6780   -0.0700 C   0  0
    2.9430    1.0920    0.9470 C   0  0
    0.4510    1.5450    0.7010 C   0  0
   -2.3150   -1.0410    1.8590 C   0  0
    2.0370   -0.3670   -1.4340 C   0  0  1  0  0  0
    3.4240   -0.1840   -1.2620 O   0  0
    1.8240   -1.6100   -2.3010 C   0  0
    1.4610    0.9000   -2.0670 C   0  0
    3.0410   -2.1170   -2.6780 F   0  0
    1.1050   -1.2700   -3.4180 F   0  0
    1.1370   -2.5550   -1.5840 F   0  0
   -0.0530    0.8710   -2.0720 C   0  0
   -0.8540    2.0370   -2.1470 N   0  0
   -0.9040   -0.2480   -2.0080 C   0  0
   -2.1760    1.6230   -2.1270 C   0  0
   -2.1580    0.2540   -2.0430 C   0  0
   -3.3890    2.3460   -2.1780 C   0  0
   -3.3600   -0.4960   -2.0040 C   0  0
   -4.6100    1.6210   -2.1390 C   0  0
   -4.5940    0.2030   -2.0530 C   0  0
    3.3260   -0.3300    2.7680 H   0  0
    0.5840   -2.5290    5.2580 H   0  0
   -1.2770   -1.9400    3.7320 H   0  0
    0.3830   -0.9900   -0.1780 H   0  0
    1.8610   -1.5800    0.3550 H   0  0
    3.1020    1.6990    1.8380 H   0  0
    3.1150    1.7260    0.0780 H   0  0
    3.6990    0.3060    0.9410 H   0  0
    0.1430    2.0040    1.6410 H   0  0
   -0.4340    1.1010    0.2400 H   0  0
    0.8050    2.3400    0.0430 H   0  0
   -2.2380   -2.1270    1.8070 H   0  0
   -2.6620   -0.6270    2.8070 H   0  0
   -3.0060   -0.7170    1.0800 H   0  0
    3.7700    0.1830   -2.0900 H   0  0
    1.8260    1.0210   -3.0880 H   0  0
    1.8050    1.7870   -1.5350 H   0  0
   -0.5270    2.9750   -2.2010 H   0  0
   -0.6090   -1.2870   -1.9420 H   0  0
   -3.3890    3.4240   -2.2460 H   0  0
   -3.3440   -1.5760   -1.9380 H   0  0
   -5.5490    2.1500   -2.1760 H   0  0
   -5.5240   -0.3460   -2.0220 H   0  0
  1  2  1  0
  2  3  2  0
  2  4  1  0
  3  5  1  0
  4  6  2  0
  5  7  2  0
  5  8  1  0
  7  9  1  0
  8 10  1  0
  8 11  1  0
  8 12  1  0
  9 13  1  0
 10 14  1  0
 14 15  1  0
 14 16  1  0
 14 17  1  0
 16 18  1  0
 16 19  1  0
 16 20  1  0
 17 21  1  0
 21 22  1  0
 21 23  2  0
 22 24  1  0
 23 25  1  0
 24 26  1  0
 25 27  1  0
 26 28  2  0
 27 29  2  0
  6  7  1  0
 24 25  2  0
 28 29  1  0
  3 30  1  0
  4 31  1  0
  6 32  1  0
 10 33  1  0
 10 34  1  0
 11 35  1  0
 11 36  1  0
 11 37  1  0
 12 38  1  0
 12 39  1  0
 12 40  1  0
 13 41  1  0
 13 42  1  0
 13 43  1  0
 15 44  1  0
 17 45  1  0
 17 46  1  0
 22 47  1  0
 23 48  1  0
 26 49  1  0
 27 50  1  0
 28 51  1  0
 29 52  1  0
M  END
> <Name>
CHEMBL1254651

> <IC50 nM>
6.6

> <Molecule_ChEMBL_ID>
CHEMBL1254651

> <Smiles>
COc1ccc(F)cc1C(C)(C)CC(O)(Cc1cc2ccccc2[nH]1)C(F)(F)F

$$$$
CHEMBL1254907
  SciTegic08162514323D

 50 52  0  0  1  0            999 V2000
    3.3380    2.0860    1.0620 S   0  0
    4.7910    1.1950    1.0430 C   0  0
    2.6090    0.5040    0.9180 C   0  0
    4.7300   -0.1880    0.9340 C   0  0
    6.0820    1.7600    1.1270 C   0  0
    3.4300   -0.6480    0.8550 C   0  0
    1.0980    0.4530    0.8610 C   0  0
    5.9020   -0.9920    0.9120 C   0  0
    7.2600    1.0450    1.1110 N   0  0
    0.5980    0.3730   -0.5800 C   0  0  2  0  0  0
    7.1640   -0.3340    1.0020 C   0  0
    0.9730   -0.8790   -1.1090 O   0  0
    1.1910    1.4650   -1.4710 C   0  0
   -0.9220    0.5020   -0.6880 C   0  0
    2.5490    1.2950   -1.5590 F   0  0
    0.9200    2.6950   -0.9320 F   0  0
    0.6410    1.3830   -2.7250 F   0  0
   -1.6110   -0.8360   -0.9490 C   0  0
   -2.9840   -0.2790   -0.8280 C   0  0
   -1.3440   -1.3730   -2.3560 C   0  0
   -1.3260   -1.8710    0.1410 C   0  0
   -3.5700   -0.1000    0.4390 C   0  0
   -3.6970    0.0700   -1.9900 C   0  0
   -2.9120   -0.4240    1.5350 O   0  0
   -4.8690    0.4300    0.5370 C   0  0
   -4.9960    0.6000   -1.8870 C   0  0
   -3.5040   -0.1090    2.7870 C   0  0
   -5.5820    0.7770   -0.6230 C   0  0
   -5.6700    0.9300   -2.9860 F   0  0
    6.1540    2.8340    1.2130 H   0  0
    3.1020   -1.6760    0.7660 H   0  0
    0.7420   -0.4000    1.4390 H   0  0
    0.6850    1.3260    1.3650 H   0  0
    5.8480   -2.0680    0.8280 H   0  0
    8.0660   -0.9260    0.9840 H   0  0
    1.1990   -1.4490   -0.3580 H   0  0
   -1.3320    0.9780    0.2030 H   0  0
   -1.1930    1.2320   -1.4510 H   0  0
   -2.2150   -1.8770   -2.7720 H   0  0
   -0.5200   -2.0860   -2.3460 H   0  0
   -1.0740   -0.5630   -3.0330 H   0  0
   -2.2170   -2.4410    0.4020 H   0  0
   -0.9630   -1.3850    1.0470 H   0  0
   -0.5630   -2.5760   -0.1900 H   0  0
   -3.2480   -0.0660   -2.9630 H   0  0
   -5.3240    0.5680    1.5080 H   0  0
   -3.6470    0.9710    2.8360 H   0  0
   -4.4010   -0.7190    2.9020 H   0  0
   -2.8050   -0.3890    3.5740 H   0  0
   -6.5800    1.1840   -0.5370 H   0  0
  1  2  1  0
  1  3  1  0
  2  4  1  0
  2  5  2  0
  3  6  2  0
  3  7  1  0
  4  8  2  0
  5  9  1  0
  7 10  1  0
  8 11  1  0
 10 12  1  0
 10 13  1  0
 10 14  1  0
 13 15  1  0
 13 16  1  0
 13 17  1  0
 14 18  1  0
 18 19  1  0
 18 20  1  0
 18 21  1  0
 19 22  2  0
 19 23  1  0
 22 24  1  0
 22 25  1  0
 23 26  2  0
 24 27  1  0
 25 28  2  0
 26 29  1  0
  4  6  1  0
  9 11  2  0
 26 28  1  0
  5 30  1  0
  6 31  1  0
  7 32  1  0
  7 33  1  0
  8 34  1  0
 11 35  1  0
 12 36  1  0
 14 37  1  0
 14 38  1  0
 20 39  1  0
 20 40  1  0
 20 41  1  0
 21 42  1  0
 21 43  1  0
 21 44  1  0
 23 45  1  0
 25 46  1  0
 27 47  1  0
 27 48  1  0
 27 49  1  0
 28 50  1  0
M  END
> <Name>
CHEMBL1254907

> <IC50 nM>
7.1

> <Molecule_ChEMBL_ID>
CHEMBL1254907

> <Smiles>
COc1ccc(F)cc1C(C)(C)CC(O)(Cc1cc2ccncc2s1)C(F)(F)F

$$$$
CHEMBL1255080
  SciTegic08162514323D

 51 53  0  0  1  0            999 V2000
   -3.3070   -1.9880    4.5650 F   0  0
   -2.2500   -1.6680    3.8200 C   0  0
   -2.3910   -0.7700    2.7500 C   0  0
   -0.9940   -2.2290    4.1060 C   0  0
   -1.2750   -0.4300    1.9630 C   0  0
    0.1210   -1.8890    3.3180 C   0  0
   -0.0160   -0.9900    2.2460 C   0  0
   -1.4360    0.5230    0.8320 C   0  0
    1.0370   -0.6800    1.5160 O   0  0
   -1.3440   -0.5610   -0.2420 C   0  0
   -0.2770    1.5190    0.7660 C   0  0
   -2.8030    1.2090    0.8630 C   0  0
    2.3030   -1.1840    1.9200 C   0  0
   -1.8770   -0.0960   -1.5980 C   0  0  2  0  0  0
   -3.2580    0.1540   -1.4670 O   0  0
   -1.6910   -1.2640   -2.5640 C   0  0
   -1.2030    1.1870   -2.0880 C   0  0
   -2.9140   -1.6700   -3.0310 F   0  0
   -1.0840   -2.3050   -1.9120 F   0  0
   -0.9080   -0.8670   -3.6190 F   0  0
    0.3050    1.0760   -2.0230 C   0  0
    1.1660    2.2010   -1.9470 N   0  0
    1.0940   -0.0920   -2.0250 C   0  0
    2.4570    1.7070   -1.9020 C   0  0
    2.3710    0.3380   -1.9510 C   0  0
    3.7330    2.3010   -1.8220 C   0  0
    3.5450   -0.4690   -1.9240 C   0  0
    4.9080    1.5800   -1.7910 N   0  0
    4.8070    0.1930   -1.8420 C   0  0
   -3.3570   -0.3380    2.5310 H   0  0
   -0.8810   -2.9200    4.9280 H   0  0
    1.0860   -2.3220    3.5410 H   0  0
   -1.8520   -1.4690    0.0800 H   0  0
   -0.3200   -0.9240   -0.3360 H   0  0
    0.0100    1.8730    1.7560 H   0  0
   -0.5510    2.3890    0.1680 H   0  0
    0.6000    1.0620    0.3090 H   0  0
   -2.9690    1.7420    1.7970 H   0  0
   -3.6040    0.4760    0.7500 H   0  0
   -2.8930    1.9260    0.0470 H   0  0
    2.5160   -0.8050    2.9200 H   0  0
    2.2910   -2.2680    1.8070 H   0  0
    3.0610   -0.7850    1.2460 H   0  0
   -3.5490    0.5900   -2.2830 H   0  0
   -1.5290    2.0430   -1.4980 H   0  0
   -1.5080    1.4160   -3.1090 H   0  0
    0.8930    3.1560   -1.9300 H   0  0
    0.7420   -1.1150   -2.0740 H   0  0
    3.7950    3.3790   -1.7830 H   0  0
    3.4880   -1.5470   -1.9650 H   0  0
    5.7110   -0.3990   -1.8180 H   0  0
  1  2  1  0
  2  3  2  0
  2  4  1  0
  3  5  1  0
  4  6  2  0
  5  7  2  0
  5  8  1  0
  7  9  1  0
  8 10  1  0
  8 11  1  0
  8 12  1  0
  9 13  1  0
 10 14  1  0
 14 15  1  0
 14 16  1  0
 14 17  1  0
 16 18  1  0
 16 19  1  0
 16 20  1  0
 17 21  1  0
 21 22  1  0
 21 23  2  0
 22 24  1  0
 23 25  1  0
 24 26  1  0
 25 27  1  0
 26 28  2  0
 27 29  2  0
  6  7  1  0
 24 25  2  0
 28 29  1  0
  3 30  1  0
  4 31  1  0
  6 32  1  0
 10 33  1  0
 10 34  1  0
 11 35  1  0
 11 36  1  0
 11 37  1  0
 12 38  1  0
 12 39  1  0
 12 40  1  0
 13 41  1  0
 13 42  1  0
 13 43  1  0
 15 44  1  0
 17 45  1  0
 17 46  1  0
 22 47  1  0
 23 48  1  0
 26 49  1  0
 27 50  1  0
 29 51  1  0
M  END
> <Name>
CHEMBL1255080

> <IC50 nM>
6

> <Molecule_ChEMBL_ID>
CHEMBL1255080

> <Smiles>
COc1ccc(F)cc1C(C)(C)C[C@@](O)(Cc1cc2ccncc2[nH]1)C(F)(F)F

$$$$
CHEMBL538939
  SciTegic08162514323D

134141  0  0  1  0            999 V2000
   -3.1540    0.9780    3.5060 S   0  0
   -2.5370    2.4570    4.0140 C   0  0
   -1.8030    2.6250    5.1540 N   0  0
   -2.7130    3.6290    3.3360 N   0  0
   -1.5200    1.4630    6.0080 C   0  0
   -3.4770    3.6290    2.0780 C   0  0
   -0.6860    1.8650    7.2230 C   0  0
   -2.6210    3.1150    0.9200 C   0  0
   -0.3340    0.4300    8.2770 S   0  0
   -3.3830    3.1210   -0.3380 N   0  0
    0.5550    1.2790    9.6130 C   0  0
   -2.7790    2.6990   -1.4880 C   0  0
    1.9000    1.7320    9.1110 C   0  0
   -1.6310    2.3220   -1.4750 O   0  0
   -3.5310    2.7030   -2.7380 C   0  0
    2.0920    2.8850    8.8030 O   0  0
    3.0020    0.7050    9.0040 C   0  0  1  0  0  0
   -4.4160    3.6680   -3.1270 N   0  0
   -3.4530    1.7130   -3.7230 C   0  0
    2.8980    0.1150    7.7170 O   0  0
    4.4240    1.2690    9.2360 C   0  0  1  0  0  0
    2.9430   -0.3870   10.1020 C   0  0  2  0  0  0
   -4.8970    3.3010   -4.3460 C   0  0
   -4.7850    4.8790   -2.3790 C   0  0
   -4.3200    2.0940   -4.7420 C   0  0
    5.2500   -0.0180    9.3650 C   0  0  2  0  0  0
    5.0650    2.1070    8.1130 C   0  0
    4.3910    2.0430   10.5670 C   0  0
    4.3870   -0.8950   10.2760 C   0  0
    1.9530   -1.5250    9.8520 C   0  0
   -4.5760    1.3650   -5.9940 N   0  0
    6.6900    0.2640    9.8340 C   0  0  2  0  0  0
    6.5470    2.4410    8.4140 C   0  0  2  0  0  0
   -5.4630    1.8630   -6.9040 C   0  0
    7.4120    1.1970    8.8190 C   0  0  2  0  0  0
    7.4590   -1.0590   10.0260 C   0  0
    6.5960    3.4510    9.4040 O   0  0
   -6.0410    2.9040   -6.6900 O   0  0
   -5.7110    1.1350   -8.1430 C   0  0
    7.5450    0.4800    7.6450 F   0  0
    8.8670    1.5180    9.3150 C   0  0  1  0  0  0
    8.9060   -0.8150   10.4790 C   0  0
   -6.5670    1.5210   -9.1330 N   0  0
   -5.1040   -0.0760   -8.4920 C   0  0
    9.6230    0.2230    9.6350 C   0  0
    9.6040    2.4060    8.3170 C   0  0
    8.8610    2.2890   10.6410 C   0  0
   -6.5080    0.5700  -10.1080 C   0  0
   -7.3990    2.7340   -9.1560 C   0  0
   -5.6090   -0.4320   -9.7380 C   0  0
   10.8830    0.0000    9.2070 C   0  0
   10.8610    2.1560    7.9040 C   0  0
   -5.2660   -1.6330  -10.5160 N   0  0
   11.5920    0.9770    8.3730 C   0  0
   -5.8500   -1.8500  -11.7310 C   0  0
   12.7540    0.8140    8.0800 O   0  0
   -6.6520   -1.0610  -12.1740 O   0  0
   -5.5020   -3.0410  -12.4940 C   0  0
   -5.2870   -4.2830  -11.9690 N   0  0
   -5.3360   -3.0840  -13.8830 C   0  0
   -4.9880   -5.1110  -13.0080 C   0  0
   -5.3630   -4.6660  -10.5490 C   0  0
   -5.0120   -4.3970  -14.2070 C   0  0
   -4.7420   -4.9280  -15.5510 N   0  0
   -4.4300   -6.2480  -15.7150 C   0  0
   -4.3730   -6.9850  -14.7580 O   0  0
   -4.1660   -6.7640  -17.0510 C   0  0
   -4.2030   -6.0160  -18.1900 N   0  0
   -3.8500   -8.0590  -17.3480 N   0  0
   -3.9040   -6.8480  -19.2090 C   0  0
   -3.6860   -8.1170  -18.6880 C   0  0
   -3.7110   -9.1780  -16.4030 C   0  0
   -1.4630    3.5310    5.4040 H   0  0
   -2.3220    4.4750    3.6950 H   0  0
   -2.4590    1.0080    6.3180 H   0  0
   -1.0020    0.7030    5.4200 H   0  0
   -3.8340    4.6370    1.8770 H   0  0
   -4.3670    3.0140    2.2010 H   0  0
    0.2520    2.3260    6.9120 H   0  0
   -1.1990    2.6290    7.8090 H   0  0
   -2.2680    2.1030    1.1190 H   0  0
   -1.7270    3.7270    0.7990 H   0  0
   -4.3340    3.4340   -0.3530 H   0  0
   -0.0250    2.1390    9.9450 H   0  0
    0.6840    0.5980   10.4530 H   0  0
   -2.8360    0.8240   -3.6970 H   0  0
    2.0220   -0.2950    7.6600 H   0  0
    2.6560    0.0780   11.0330 H   0  0
   -5.6230    3.8870   -4.8970 H   0  0
   -3.9590    5.3440   -1.8400 H   0  0
   -5.5610    4.6370   -1.6520 H   0  0
   -5.1930    5.6210   -3.0660 H   0  0
    5.3030   -0.5080    8.4030 H   0  0
    5.0240    1.5530    7.1760 H   0  0
    4.4860    3.0200    7.9490 H   0  0
    5.3930    2.2660   10.9340 H   0  0
    3.8730    1.4690   11.3340 H   0  0
    3.8630    2.9900   10.4470 H   0  0
    4.5020   -1.9380   10.0160 H   0  0
    4.6950   -0.7890   11.3050 H   0  0
    1.8260   -2.1290   10.7500 H   0  0
    0.9820   -1.1330    9.5470 H   0  0
    2.3110   -2.1800    9.0570 H   0  0
   -4.1000    0.5040   -6.1740 H   0  0
    6.6500    0.7680   10.8030 H   0  0
    6.9650    2.8980    7.5180 H   0  0
    7.4610   -1.6350    9.0980 H   0  0
    6.9610   -1.6840   10.7680 H   0  0
    6.2190    4.2560    9.0120 H   0  0
    9.4510   -1.7600   10.4710 H   0  0
    8.9040   -0.4750   11.5160 H   0  0
   -4.3810   -0.6290   -7.9060 H   0  0
    9.1060    3.2770    7.9160 H   0  0
    9.8200    2.2170   11.1560 H   0  0
    8.0940    1.9000   11.3110 H   0  0
    8.6520    3.3460   10.4710 H   0  0
   -7.0880    0.6230  -11.0180 H   0  0
   -6.8360    3.6660   -9.0940 H   0  0
   -8.0980    2.7110   -8.3200 H   0  0
   -7.9810    2.7580  -10.0760 H   0  0
   11.3890   -0.9140    9.4770 H   0  0
   11.3320    2.8420    7.2150 H   0  0
   -4.6040   -2.2870  -10.1520 H   0  0
   -5.4410   -2.2560  -14.5710 H   0  0
   -4.7720   -6.1640  -12.8810 H   0  0
   -6.1580   -4.1720   -9.9940 H   0  0
   -4.4180   -4.4320  -10.0590 H   0  0
   -5.5200   -5.7420  -10.4710 H   0  0
   -4.7890   -4.3200  -16.3440 H   0  0
   -3.8560   -6.5390  -20.2440 H   0  0
   -3.4280   -9.0180  -19.2270 H   0  0
   -4.6090   -9.3910  -15.8240 H   0  0
   -2.9060   -8.9630  -15.6990 H   0  0
   -3.4430  -10.0840  -16.9470 H   0  0
  1  2  2  0
  2  3  1  0
  2  4  1  0
  3  5  1  0
  4  6  1  0
  5  7  1  0
  6  8  1  0
  7  9  1  0
  8 10  1  0
  9 11  1  0
 10 12  1  0
 11 13  1  0
 12 14  2  0
 12 15  1  0
 13 16  2  0
 13 17  1  0
 15 18  1  0
 15 19  2  0
 17 20  1  0
 17 21  1  0
 17 22  1  0
 18 23  1  0
 18 24  1  0
 19 25  1  0
 21 26  1  0
 21 27  1  0
 21 28  1  0
 22 29  1  0
 22 30  1  0
 25 31  1  0
 26 32  1  0
 27 33  1  0
 31 34  1  0
 32 35  1  0
 32 36  1  0
 33 37  1  0
 34 38  2  0
 34 39  1  0
 35 40  1  0
 35 41  1  0
 36 42  1  0
 39 43  1  0
 39 44  2  0
 41 45  1  0
 41 46  1  0
 41 47  1  0
 43 48  1  0
 43 49  1  0
 44 50  1  0
 45 51  2  0
 46 52  2  0
 50 53  1  0
 51 54  1  0
 53 55  1  0
 54 56  2  0
 55 57  2  0
 55 58  1  0
 58 59  1  0
 58 60  2  0
 59 61  1  0
 59 62  1  0
 60 63  1  0
 63 64  1  0
 64 65  1  0
 65 66  2  0
 65 67  1  0
 67 68  2  0
 67 69  1  0
 68 70  1  0
 69 71  1  0
 69 72  1  0
 23 25  2  0
 26 29  1  0
 33 35  1  0
 42 45  1  0
 48 50  2  0
 52 54  1  0
 61 63  2  0
 70 71  2  0
  3 73  1  0
  4 74  1  0
  5 75  1  0
  5 76  1  0
  6 77  1  0
  6 78  1  0
  7 79  1  0
  7 80  1  0
  8 81  1  0
  8 82  1  0
 10 83  1  0
 11 84  1  0
 11 85  1  0
 19 86  1  0
 20 87  1  0
 22 88  1  0
 23 89  1  0
 24 90  1  0
 24 91  1  0
 24 92  1  0
 26 93  1  0
 27 94  1  0
 27 95  1  0
 28 96  1  0
 28 97  1  0
 28 98  1  0
 29 99  1  0
 29100  1  0
 30101  1  0
 30102  1  0
 30103  1  0
 31104  1  0
 32105  1  0
 33106  1  0
 36107  1  0
 36108  1  0
 37109  1  0
 42110  1  0
 42111  1  0
 44112  1  0
 46113  1  0
 47114  1  0
 47115  1  0
 47116  1  0
 48117  1  0
 49118  1  0
 49119  1  0
 49120  1  0
 51121  1  0
 52122  1  0
 53123  1  0
 60124  1  0
 61125  1  0
 62126  1  0
 62127  1  0
 62128  1  0
 64129  1  0
 70130  1  0
 71131  1  0
 72132  1  0
 72133  1  0
 72134  1  0
M  END
> <Name>
CHEMBL538939

> <IC50 nM>
26

> <Molecule_ChEMBL_ID>
CHEMBL538939

> <Smiles>
C[C@H]1C[C@@H]2[C@H]3CCC4=CC(=O)C=C[C@@]4(C)[C@]3(F)[C@H](O)C[C@@]2(C)[C@]1(O)C(=O)CSCCNC(=S)NCCNC(=O)c1cc(NC(=O)c2cc(NC(=O)c3cc(NC(=O)c4nccn4C)cn3C)cn2C)cn1C

$$$$
CHEMBL540184
  SciTegic08162514323D

162170  0  0  1  0            999 V2000
    5.1540   -1.5100   -0.7830 S   0  0
    5.2930   -3.1560   -0.4800 C   0  0
    6.4750   -3.8420   -0.5270 N   0  0
    4.2400   -3.9630   -0.1580 N   0  0
    7.7130   -3.1250   -0.8610 C   0  0
    2.8910   -3.3870   -0.0620 C   0  0
    8.9120   -4.0720   -0.8610 C   0  0
    1.8630   -4.4550    0.3090 C   0  0
   10.4420   -3.1860   -1.2710 S   0  0
    0.5140   -3.8770    0.4040 N   0  0
   11.6020   -4.5780   -1.1780 C   0  0
   -0.5390   -4.6860    0.7270 C   0  0
   12.9920   -4.0940   -1.4880 C   0  0
   -0.3650   -5.8630    0.9320 O   0  0
   -1.8770   -4.1170    0.8220 C   0  0
   13.2210   -2.9180   -1.6480 O   0  0
   14.0960   -5.1230   -1.5960 C   0  0  1  0  0  0
   -3.0140   -4.8090    1.1330 N   0  0
   -2.1930   -2.7720    0.6060 C   0  0
   13.9920   -5.7130   -2.8830 O   0  0
   15.5180   -4.5590   -1.3630 C   0  0  1  0  0  0
   14.0370   -6.2150   -0.4980 C   0  0  2  0  0  0
   -4.0430   -3.9180    1.1170 C   0  0
   -3.1150   -6.2460    1.4320 C   0  0
   -3.5660   -2.6470    0.7930 C   0  0
   16.3440   -5.8460   -1.2340 C   0  0  2  0  0  0
   16.1560   -3.7210   -2.4860 C   0  0
   15.4850   -3.7830   -0.0330 C   0  0
   15.4790   -6.7210   -0.3240 C   0  0
   13.0470   -7.3540   -0.7480 C   0  0
   -4.3610   -1.4160    0.6740 N   0  0
   17.7820   -5.5630   -0.7660 C   0  0  2  0  0  0
   17.6410   -3.3870   -2.1860 C   0  0  2  0  0  0
   -3.7500   -0.2380    0.3480 C   0  0
   18.5040   -4.6310   -1.7810 C   0  0  2  0  0  0
   18.5530   -6.8870   -0.5740 C   0  0
   17.6880   -2.3750   -1.1950 O   0  0
   -2.5590   -0.2010    0.1560 O   0  0
   -4.5470    0.9770    0.2320 C   0  0
   18.6370   -5.3480   -2.9550 F   0  0
   19.9610   -4.3110   -1.2850 C   0  0  1  0  0  0
   20.0000   -6.6430   -0.1230 C   0  0
   -4.0650    2.2150   -0.0860 N   0  0
   -5.9300    1.0510    0.4320 C   0  0
   20.7150   -5.6060   -0.9650 C   0  0
   20.6980   -3.4220   -2.2830 C   0  0
   19.9550   -3.5390    0.0410 C   0  0
   -5.1230    3.0680   -0.0900 C   0  0
   -2.6640    2.5680   -0.3730 C   0  0
   -6.2950    2.3770    0.2270 C   0  0
   21.9770   -5.8260   -1.3950 C   0  0
   21.9550   -3.6700   -2.6950 C   0  0
   -7.6490    2.9410    0.3260 N   0  0
   22.6860   -4.8500   -2.2270 C   0  0
   -8.7030    2.1330    0.6480 C   0  0
   23.8480   -5.0120   -2.5200 O   0  0
   -8.5270    0.9550    0.8540 O   0  0
  -10.0410    2.7010    0.7440 C   0  0
  -11.1760    2.0100    1.0570 N   0  0
  -10.3580    4.0470    0.5290 C   0  0
  -12.2050    2.9000    1.0410 C   0  0
  -11.2780    0.5720    1.3560 C   0  0
  -11.7290    4.1720    0.7170 C   0  0
  -12.5240    5.4020    0.5980 N   0  0
  -11.9140    6.5800    0.2720 C   0  0
  -10.7210    6.6170    0.0780 O   0  0
  -12.7090    7.7950    0.1560 C   0  0
  -12.2270    9.0330   -0.1640 N   0  0
  -14.0940    7.8690    0.3560 C   0  0
  -13.2870    9.8870   -0.1680 C   0  0
  -10.8280    9.3870   -0.4490 C   0  0
  -14.4570    9.1950    0.1500 C   0  0
  -15.8130    9.7600    0.2500 N   0  0
  -16.8660    8.9510    0.5720 C   0  0
  -16.6920    7.7740    0.7770 O   0  0
  -18.2410    9.5590    0.6660 C   0  0
  -19.3050    8.5370    1.0630 C   0  0
  -20.7010    9.1490    1.1700 C   0  0
  -21.6940    8.1350    1.5490 N   0  0
  -23.0020    8.4980    1.6930 C   0  0
  -23.3420    9.6450    1.5120 O   0  0
  -23.9910    7.4960    2.0700 C   0  0
  -23.7090    6.1820    2.2990 N   0  0
  -25.3250    7.7310    2.2480 N   0  0
  -24.8750    5.5860    2.6210 C   0  0
  -25.8790    6.5470    2.5880 C   0  0
  -26.0280    9.0140    2.0980 C   0  0
    6.4940   -4.8240   -0.3380 H   0  0
    4.3930   -4.9380    0.0100 H   0  0
    7.6000   -2.6470   -1.8340 H   0  0
    7.8610   -2.3140   -0.1460 H   0  0
    2.6350   -2.9160   -1.0120 H   0  0
    2.8970   -2.5840    0.6760 H   0  0
    9.0220   -4.5550    0.1110 H   0  0
    8.7620   -4.8850   -1.5700 H   0  0
    2.1190   -4.9240    1.2580 H   0  0
    1.8570   -5.2580   -0.4300 H   0  0
    0.3670   -2.9020    0.2340 H   0  0
   11.5740   -5.0080   -0.1760 H   0  0
   11.3070   -5.3460   -1.8950 H   0  0
   -1.5020   -1.9800    0.3420 H   0  0
   13.0820   -6.0310   -2.9790 H   0  0
   13.7500   -5.7500    0.4340 H   0  0
   -5.0660   -4.1950    1.3320 H   0  0
   -2.1660   -6.7810    1.3910 H   0  0
   -3.7950   -6.7190    0.7230 H   0  0
   -3.5290   -6.3810    2.4320 H   0  0
   16.3970   -6.3340   -2.1990 H   0  0
   16.1150   -4.2750   -3.4240 H   0  0
   15.5800   -2.8070   -2.6500 H   0  0
   16.4870   -3.5720    0.3380 H   0  0
   14.9570   -4.3560    0.7320 H   0  0
   14.9650   -2.8320   -0.1540 H   0  0
   15.5960   -7.7660   -0.5840 H   0  0
   15.7870   -6.6170    0.7050 H   0  0
   13.1370   -8.1170    0.0230 H   0  0
   12.0240   -6.9790   -0.7600 H   0  0
   13.2380   -7.8260   -1.7110 H   0  0
   -5.3480   -1.4430    0.8340 H   0  0
   17.7440   -5.0610    0.2030 H   0  0
   18.0590   -2.9280   -3.0840 H   0  0
   18.5550   -7.4610   -1.5020 H   0  0
   18.0550   -7.5100    0.1680 H   0  0
   18.1190   -1.6040   -1.5960 H   0  0
   20.5450   -7.5880   -0.1290 H   0  0
   19.9960   -6.3030    0.9140 H   0  0
   -6.5880    0.2320    0.6950 H   0  0
   20.2000   -2.5510   -2.6840 H   0  0
   20.9120   -3.6110    0.5570 H   0  0
   19.1880   -3.9260    0.7110 H   0  0
   19.7480   -2.4820   -0.1290 H   0  0
   -5.0310    4.1230   -0.3120 H   0  0
   -1.9710    1.7310   -0.3160 H   0  0
   -2.3300    3.3280    0.3340 H   0  0
   -2.5960    2.9900   -1.3750 H   0  0
   22.4830   -6.7420   -1.1230 H   0  0
   22.4260   -2.9860   -3.3850 H   0  0
   -7.7950    3.9160    0.1580 H   0  0
   -9.6660    4.8380    0.2660 H   0  0
  -13.2290    2.6230    1.2540 H   0  0
  -10.3280    0.0370    1.3150 H   0  0
  -11.9570    0.1000    0.6470 H   0  0
  -11.6940    0.4380    2.3560 H   0  0
  -13.5120    5.3750    0.7560 H   0  0
  -14.7500    7.0510    0.6190 H   0  0
  -13.1940   10.9420   -0.3890 H   0  0
  -10.1330    8.5490   -0.3930 H   0  0
  -10.4920   10.1470    0.2560 H   0  0
  -10.7580    9.8090   -1.4510 H   0  0
  -15.9570   10.7350    0.0800 H   0  0
  -18.2540   10.3240    1.4410 H   0  0
  -18.4980   10.0370   -0.2790 H   0  0
  -19.0320    8.0350    1.9900 H   0  0
  -19.3050    7.6930    0.3690 H   0  0
  -20.9960    9.6040    0.2230 H   0  0
  -20.7130    9.9550    1.9020 H   0  0
  -21.4160    7.1860    1.7010 H   0  0
  -24.9690    4.5330    2.8580 H   0  0
  -26.9320    6.4080    2.7950 H   0  0
  -25.3850    9.8460    1.8150 H   0  0
  -26.5140    9.2740    3.0370 H   0  0
  -26.8010    8.9160    1.3360 H   0  0
  1  2  2  0
  2  3  1  0
  2  4  1  0
  3  5  1  0
  4  6  1  0
  5  7  1  0
  6  8  1  0
  7  9  1  0
  8 10  1  0
  9 11  1  0
 10 12  1  0
 11 13  1  0
 12 14  2  0
 12 15  1  0
 13 16  2  0
 13 17  1  0
 15 18  1  0
 15 19  2  0
 17 20  1  0
 17 21  1  0
 17 22  1  0
 18 23  1  0
 18 24  1  0
 19 25  1  0
 21 26  1  0
 21 27  1  0
 21 28  1  0
 22 29  1  0
 22 30  1  0
 25 31  1  0
 26 32  1  0
 27 33  1  0
 31 34  1  0
 32 35  1  0
 32 36  1  0
 33 37  1  0
 34 38  2  0
 34 39  1  0
 35 40  1  0
 35 41  1  0
 36 42  1  0
 39 43  1  0
 39 44  2  0
 41 45  1  0
 41 46  1  0
 41 47  1  0
 43 48  1  0
 43 49  1  0
 44 50  1  0
 45 51  2  0
 46 52  2  0
 50 53  1  0
 51 54  1  0
 53 55  1  0
 54 56  2  0
 55 57  2  0
 55 58  1  0
 58 59  1  0
 58 60  2  0
 59 61  1  0
 59 62  1  0
 60 63  1  0
 63 64  1  0
 64 65  1  0
 65 66  2  0
 65 67  1  0
 67 68  1  0
 67 69  2  0
 68 70  1  0
 68 71  1  0
 69 72  1  0
 72 73  1  0
 73 74  1  0
 74 75  2  0
 74 76  1  0
 76 77  1  0
 77 78  1  0
 78 79  1  0
 79 80  1  0
 80 81  2  0
 80 82  1  0
 82 83  2  0
 82 84  1  0
 83 85  1  0
 84 86  1  0
 84 87  1  0
 23 25  2  0
 26 29  1  0
 33 35  1  0
 42 45  1  0
 48 50  2  0
 52 54  1  0
 61 63  2  0
 70 72  2  0
 85 86  2  0
  3 88  1  0
  4 89  1  0
  5 90  1  0
  5 91  1  0
  6 92  1  0
  6 93  1  0
  7 94  1  0
  7 95  1  0
  8 96  1  0
  8 97  1  0
 10 98  1  0
 11 99  1  0
 11100  1  0
 19101  1  0
 20102  1  0
 22103  1  0
 23104  1  0
 24105  1  0
 24106  1  0
 24107  1  0
 26108  1  0
 27109  1  0
 27110  1  0
 28111  1  0
 28112  1  0
 28113  1  0
 29114  1  0
 29115  1  0
 30116  1  0
 30117  1  0
 30118  1  0
 31119  1  0
 32120  1  0
 33121  1  0
 36122  1  0
 36123  1  0
 37124  1  0
 42125  1  0
 42126  1  0
 44127  1  0
 46128  1  0
 47129  1  0
 47130  1  0
 47131  1  0
 48132  1  0
 49133  1  0
 49134  1  0
 49135  1  0
 51136  1  0
 52137  1  0
 53138  1  0
 60139  1  0
 61140  1  0
 62141  1  0
 62142  1  0
 62143  1  0
 64144  1  0
 69145  1  0
 70146  1  0
 71147  1  0
 71148  1  0
 71149  1  0
 73150  1  0
 76151  1  0
 76152  1  0
 77153  1  0
 77154  1  0
 78155  1  0
 78156  1  0
 79157  1  0
 85158  1  0
 86159  1  0
 87160  1  0
 87161  1  0
 87162  1  0
M  END
> <Name>
CHEMBL540184

> <IC50 nM>
23

> <Molecule_ChEMBL_ID>
CHEMBL540184

> <Smiles>
C[C@H]1C[C@@H]2[C@H]3CCC4=CC(=O)C=C[C@@]4(C)[C@]3(F)[C@H](O)C[C@@]2(C)[C@]1(O)C(=O)CSCCNC(=S)NCCNC(=O)c1cc(NC(=O)c2cc(NC(=O)c3cc(NC(=O)c4cc(NC(=O)CCCNC(=O)c5nccn5C)cn4C)cn3C)cn2C)cn1C

$$$$
CHEMBL553018
  SciTegic08162514323D

192202  0  0  1  0            999 V2000
    9.2870   -1.5180   -1.4140 S   0  0
    9.4260   -3.1640   -1.1110 C   0  0
   10.6080   -3.8500   -1.1600 N   0  0
    8.3730   -3.9710   -0.7890 N   0  0
   11.8460   -3.1330   -1.4940 C   0  0
    7.0240   -3.3950   -0.6930 C   0  0
   13.0450   -4.0800   -1.4920 C   0  0
    5.9960   -4.4630   -0.3240 C   0  0
   14.5740   -3.1930   -1.9040 S   0  0
    4.6470   -3.8850   -0.2290 N   0  0
   15.7350   -4.5860   -1.8110 C   0  0
    3.5940   -4.6930    0.0940 C   0  0
   17.1250   -4.1020   -2.1210 C   0  0
    3.7680   -5.8710    0.2990 O   0  0
    2.2560   -4.1250    0.1890 C   0  0
   17.3540   -2.9260   -2.2810 O   0  0
   18.2290   -5.1310   -2.2270 C   0  0  1  0  0  0
    1.1210   -4.8160    0.5020 N   0  0
    1.9390   -2.7790   -0.0270 C   0  0
   18.1250   -5.7210   -3.5140 O   0  0
   19.6510   -4.5660   -1.9960 C   0  0  1  0  0  0
   18.1700   -6.2230   -1.1310 C   0  0  2  0  0  0
    0.0900   -3.9260    0.4860 C   0  0
    1.0180   -6.2540    0.8010 C   0  0
    0.5660   -2.6540    0.1620 C   0  0
   20.4770   -5.8540   -1.8650 C   0  0  2  0  0  0
   20.2890   -3.7270   -3.1170 C   0  0
   19.6170   -3.7910   -0.6660 C   0  0
   19.6120   -6.7290   -0.9570 C   0  0
   17.1800   -7.3610   -1.3810 C   0  0
   -0.2290   -1.4240    0.0430 N   0  0
   21.9140   -5.5700   -1.3970 C   0  0  2  0  0  0
   21.7740   -3.3950   -2.8180 C   0  0  2  0  0  0
    0.3830   -0.2460   -0.2850 C   0  0
   22.6370   -4.6390   -2.4140 C   0  0  2  0  0  0
   22.6860   -6.8950   -1.2070 C   0  0
   21.8210   -2.3830   -1.8280 O   0  0
    1.5760   -0.2090   -0.4770 O   0  0
   -0.4140    0.9690   -0.4000 C   0  0
   22.7700   -5.3560   -3.5880 F   0  0
   24.0940   -4.3180   -1.9180 C   0  0  1  0  0  0
   24.1330   -6.6500   -0.7540 C   0  0
    0.0680    2.2070   -0.7190 N   0  0
   -1.7970    1.0430   -0.1990 C   0  0
   24.8480   -5.6130   -1.5980 C   0  0
   24.8300   -3.4300   -2.9160 C   0  0
   24.0880   -3.5470   -0.5900 C   0  0
   -0.9900    3.0610   -0.7230 C   0  0
    1.4690    2.5610   -1.0060 C   0  0
   -2.1620    2.3690   -0.4040 C   0  0
   26.1100   -5.8340   -2.0250 C   0  0
   26.0880   -3.6780   -3.3280 C   0  0
   -3.5160    2.9340   -0.3070 N   0  0
   26.8190   -4.8570   -2.8590 C   0  0
   -4.5700    2.1250    0.0180 C   0  0
   27.9810   -5.0200   -3.1520 O   0  0
   -4.3950    0.9470    0.2230 O   0  0
   -5.9080    2.6930    0.1110 C   0  0
   -7.0430    2.0020    0.4240 N   0  0
   -6.2250    4.0390   -0.1040 C   0  0
   -8.0720    2.8930    0.4080 C   0  0
   -7.1450    0.5640    0.7230 C   0  0
   -7.5960    4.1640    0.0840 C   0  0
   -8.3910    5.3950   -0.0350 N   0  0
   -7.7810    6.5720   -0.3610 C   0  0
   -6.5880    6.6090   -0.5530 O   0  0
   -8.5760    7.7870   -0.4770 C   0  0
   -8.0940    9.0260   -0.7950 N   0  0
   -9.9590    7.8610   -0.2770 C   0  0
   -9.1540    9.8790   -0.7990 C   0  0
   -6.6950    9.3790   -1.0820 C   0  0
  -10.3240    9.1880   -0.4820 C   0  0
  -11.6800    9.7520   -0.3830 N   0  0
  -12.7330    8.9440   -0.0610 C   0  0
  -12.5590    7.7660    0.1450 O   0  0
  -14.1080    9.5510    0.0330 C   0  0
  -15.1720    8.5290    0.4300 C   0  0
  -16.5690    9.1430    0.5370 C   0  0
  -17.5610    8.1270    0.9180 N   0  0
  -18.8690    8.4900    1.0630 C   0  0
  -19.2090    9.6370    0.8790 O   0  0
  -19.8580    7.4880    1.4390 C   0  0
  -21.1920    7.7170    1.6170 N   0  0
  -19.5780    6.1370    1.6740 C   0  0
  -21.7600    6.5270    1.9610 C   0  0
  -21.8950    9.0000    1.4650 C   0  0
  -20.7840    5.5290    2.0060 C   0  0
  -20.9930    4.1110    2.3380 N   0  0
  -19.9340    3.2480    2.3400 C   0  0
  -18.8230    3.6450    2.0700 O   0  0
  -20.1490    1.8460    2.6700 C   0  0
  -19.1820    0.8830    2.7090 N   0  0
  -21.3870    1.2810    2.9980 C   0  0
  -19.7930   -0.2830    3.0570 C   0  0
  -17.7480    1.0610    2.4300 C   0  0
  -21.1600   -0.0680    3.2420 C   0  0
  -22.1640   -1.0720    3.6210 N   0  0
  -23.4730   -0.7090    3.7660 C   0  0
  -23.8130    0.4380    3.5840 O   0  0
  -24.4610   -1.7110    4.1430 C   0  0
  -24.1800   -3.0250    4.3710 N   0  0
  -25.7950   -1.4770    4.3200 N   0  0
  -25.3460   -3.6210    4.6930 C   0  0
  -26.3500   -2.6600    4.6600 C   0  0
  -26.4980   -0.1930    4.1700 C   0  0
   10.6270   -4.8320   -0.9710 H   0  0
    8.5260   -4.9450   -0.6210 H   0  0
   11.7330   -2.6540   -2.4670 H   0  0
   11.9940   -2.3220   -0.7790 H   0  0
    6.7680   -2.9240   -1.6450 H   0  0
    7.0290   -2.5920    0.0430 H   0  0
   13.1540   -4.5630   -0.5210 H   0  0
   12.8950   -4.8930   -2.2030 H   0  0
    6.2520   -4.9320    0.6250 H   0  0
    5.9900   -5.2660   -1.0630 H   0  0
    4.5020   -2.9100   -0.3980 H   0  0
   15.7070   -5.0160   -0.8090 H   0  0
   15.4400   -5.3540   -2.5250 H   0  0
    2.6310   -1.9880   -0.2890 H   0  0
   17.2150   -6.0390   -3.6110 H   0  0
   17.8830   -5.7580   -0.1970 H   0  0
   -0.9340   -4.2030    0.6990 H   0  0
    1.9670   -6.7890    0.7580 H   0  0
    0.3380   -6.7270    0.0900 H   0  0
    0.6040   -6.3890    1.7990 H   0  0
   20.5300   -6.3420   -2.8300 H   0  0
   20.2480   -4.2830   -4.0570 H   0  0
   19.7130   -2.8140   -3.2830 H   0  0
   20.6190   -3.5800   -0.2930 H   0  0
   19.0900   -4.3610    0.1000 H   0  0
   19.0980   -2.8400   -0.7870 H   0  0
   19.7290   -7.7740   -1.2170 H   0  0
   19.9220   -6.6250    0.0720 H   0  0
   17.2700   -8.1250   -0.6090 H   0  0
   16.1560   -6.9860   -1.3930 H   0  0
   17.3710   -7.8340   -2.3420 H   0  0
   -1.2150   -1.4510    0.2010 H   0  0
   21.8770   -5.0680   -0.4300 H   0  0
   22.1920   -2.9360   -3.7150 H   0  0
   22.6880   -7.4690   -2.1350 H   0  0
   22.1880   -7.5180   -0.4650 H   0  0
   22.2520   -1.6110   -2.2270 H   0  0
   24.6780   -7.5960   -0.7620 H   0  0
   24.1290   -6.3110    0.2830 H   0  0
   -2.4550    0.2250    0.0630 H   0  0
   24.3320   -2.5590   -3.3160 H   0  0
   25.0450   -3.6190   -0.0740 H   0  0
   23.3210   -3.9340    0.0780 H   0  0
   23.8810   -2.4900   -0.7600 H   0  0
   -0.8980    4.1150   -0.9450 H   0  0
    2.1640    1.7230   -0.9470 H   0  0
    1.8030    3.3200   -0.2990 H   0  0
    1.5390    2.9820   -2.0080 H   0  0
   26.6160   -6.7500   -1.7540 H   0  0
   26.5590   -2.9940   -4.0180 H   0  0
   -3.6620    3.9080   -0.4750 H   0  0
   -5.5330    4.8300   -0.3670 H   0  0
   -9.0960    2.6150    0.6230 H   0  0
   -6.1950    0.0290    0.6820 H   0  0
   -7.8240    0.0920    0.0140 H   0  0
   -7.5610    0.4300    1.7230 H   0  0
   -9.3790    5.3670    0.1230 H   0  0
  -10.6170    7.0430   -0.0140 H   0  0
   -9.0610   10.9340   -1.0210 H   0  0
   -6.0000    8.5410   -1.0250 H   0  0
   -6.3590   10.1390   -0.3750 H   0  0
   -6.6250    9.8010   -2.0840 H   0  0
  -11.8240   10.7270   -0.5530 H   0  0
  -14.1210   10.3170    0.8090 H   0  0
  -14.3650   10.0310   -0.9120 H   0  0
  -14.8990    8.0270    1.3570 H   0  0
  -15.1720    7.6860   -0.2620 H   0  0
  -16.8640    9.5960   -0.4080 H   0  0
  -16.5800    9.9470    1.2720 H   0  0
  -17.2830    7.1780    1.0680 H   0  0
  -18.6080    5.6580    1.6110 H   0  0
  -22.8170    6.4140    2.1640 H   0  0
  -21.2500    9.8340    1.1820 H   0  0
  -22.3810    9.2600    2.4060 H   0  0
  -22.6680    8.9040    0.7050 H   0  0
  -21.9110    3.7830    2.5610 H   0  0
  -22.3380    1.7990    3.0490 H   0  0
  -19.2620   -1.2190    3.1620 H   0  0
  -17.4650    2.0800    2.1680 H   0  0
  -17.4570    0.4120    1.6040 H   0  0
  -17.1700    0.7680    3.3050 H   0  0
  -21.8870   -2.0220    3.7730 H   0  0
  -25.4400   -4.6740    4.9300 H   0  0
  -27.4030   -2.7990    4.8670 H   0  0
  -25.8560    0.6390    3.8870 H   0  0
  -26.9850    0.0660    5.1090 H   0  0
  -27.2720   -0.2910    3.4080 H   0  0
  1  2  2  0
  2  3  1  0
  2  4  1  0
  3  5  1  0
  4  6  1  0
  5  7  1  0
  6  8  1  0
  7  9  1  0
  8 10  1  0
  9 11  1  0
 10 12  1  0
 11 13  1  0
 12 14  2  0
 12 15  1  0
 13 16  2  0
 13 17  1  0
 15 18  1  0
 15 19  2  0
 17 20  1  0
 17 21  1  0
 17 22  1  0
 18 23  1  0
 18 24  1  0
 19 25  1  0
 21 26  1  0
 21 27  1  0
 21 28  1  0
 22 29  1  0
 22 30  1  0
 25 31  1  0
 26 32  1  0
 27 33  1  0
 31 34  1  0
 32 35  1  0
 32 36  1  0
 33 37  1  0
 34 38  2  0
 34 39  1  0
 35 40  1  0
 35 41  1  0
 36 42  1  0
 39 43  1  0
 39 44  2  0
 41 45  1  0
 41 46  1  0
 41 47  1  0
 43 48  1  0
 43 49  1  0
 44 50  1  0
 45 51  2  0
 46 52  2  0
 50 53  1  0
 51 54  1  0
 53 55  1  0
 54 56  2  0
 55 57  2  0
 55 58  1  0
 58 59  1  0
 58 60  2  0
 59 61  1  0
 59 62  1  0
 60 63  1  0
 63 64  1  0
 64 65  1  0
 65 66  2  0
 65 67  1  0
 67 68  1  0
 67 69  2  0
 68 70  1  0
 68 71  1  0
 69 72  1  0
 72 73  1  0
 73 74  1  0
 74 75  2  0
 74 76  1  0
 76 77  1  0
 77 78  1  0
 78 79  1  0
 79 80  1  0
 80 81  2  0
 80 82  1  0
 82 83  1  0
 82 84  2  0
 83 85  1  0
 83 86  1  0
 84 87  1  0
 87 88  1  0
 88 89  1  0
 89 90  2  0
 89 91  1  0
 91 92  1  0
 91 93  2  0
 92 94  1  0
 92 95  1  0
 93 96  1  0
 96 97  1  0
 97 98  1  0
 98 99  2  0
 98100  1  0
100101  2  0
100102  1  0
101103  1  0
102104  1  0
102105  1  0
 23 25  2  0
 26 29  1  0
 33 35  1  0
 42 45  1  0
 48 50  2  0
 52 54  1  0
 61 63  2  0
 70 72  2  0
 85 87  2  0
 94 96  2  0
103104  2  0
  3106  1  0
  4107  1  0
  5108  1  0
  5109  1  0
  6110  1  0
  6111  1  0
  7112  1  0
  7113  1  0
  8114  1  0
  8115  1  0
 10116  1  0
 11117  1  0
 11118  1  0
 19119  1  0
 20120  1  0
 22121  1  0
 23122  1  0
 24123  1  0
 24124  1  0
 24125  1  0
 26126  1  0
 27127  1  0
 27128  1  0
 28129  1  0
 28130  1  0
 28131  1  0
 29132  1  0
 29133  1  0
 30134  1  0
 30135  1  0
 30136  1  0
 31137  1  0
 32138  1  0
 33139  1  0
 36140  1  0
 36141  1  0
 37142  1  0
 42143  1  0
 42144  1  0
 44145  1  0
 46146  1  0
 47147  1  0
 47148  1  0
 47149  1  0
 48150  1  0
 49151  1  0
 49152  1  0
 49153  1  0
 51154  1  0
 52155  1  0
 53156  1  0
 60157  1  0
 61158  1  0
 62159  1  0
 62160  1  0
 62161  1  0
 64162  1  0
 69163  1  0
 70164  1  0
 71165  1  0
 71166  1  0
 71167  1  0
 73168  1  0
 76169  1  0
 76170  1  0
 77171  1  0
 77172  1  0
 78173  1  0
 78174  1  0
 79175  1  0
 84176  1  0
 85177  1  0
 86178  1  0
 86179  1  0
 86180  1  0
 88181  1  0
 93182  1  0
 94183  1  0
 95184  1  0
 95185  1  0
 95186  1  0
 97187  1  0
103188  1  0
104189  1  0
105190  1  0
105191  1  0
105192  1  0
M  END
> <Name>
CHEMBL553018

> <IC50 nM>
21

> <Molecule_ChEMBL_ID>
CHEMBL553018

> <Smiles>
C[C@H]1C[C@@H]2[C@H]3CCC4=CC(=O)C=C[C@@]4(C)[C@]3(F)[C@H](O)C[C@@]2(C)[C@]1(O)C(=O)CSCCNC(=S)NCCNC(=O)c1cc(NC(=O)c2cc(NC(=O)c3cc(NC(=O)c4cc(NC(=O)CCCNC(=O)c5cc(NC(=O)c6cc(NC(=O)c7nccn7C)cn6C)cn5C)cn4C
)cn3C)cn2C)cn1C

$$$$
CHEMBL457035
  SciTegic08162514323D

 57 60  0  0  1  0            999 V2000
   -3.2640   -0.4630   -1.8940 O   0  0
   -2.2150   -0.2250   -1.0960 C   0  0
   -3.4360    0.3650   -3.0350 C   0  0
   -2.0060   -1.0230    0.0510 C   0  0
   -1.3200    0.8240   -1.3960 C   0  0
   -4.6490   -0.0630   -3.7790 C   0  0
   -0.9010   -0.7750    0.8990 C   0  0
   -0.2170    1.0820   -0.5530 C   0  0
   -5.7330    0.8160   -3.9470 C   0  0
   -4.7290   -1.3540   -4.3300 C   0  0
    0.0100    0.2810    0.6040 C   0  0
   -0.6820   -1.6040    2.1100 C   0  0
   -6.8670    0.3830   -4.6580 C   0  0
   -5.8910   -1.7320   -5.0330 C   0  0
    1.1680    0.4960    1.5330 C   0  0  1  0  0  0
    0.8030   -1.9450    2.3500 C   0  0
   -6.9380   -0.8710   -5.1890 N   0  0
    1.8160   -0.8910    1.8320 C   0  0  2  0  0  0
    2.2600    1.4430    0.9610 C   0  0
    0.6250    1.1190    2.8260 C   0  0
    3.0450   -0.7790    2.7580 C   0  0
    3.4800    1.5700    1.8890 C   0  0
   -0.3750    2.2460    2.5650 C   0  0
    4.1130    0.2030    2.2270 C   0  0  1  0  0  0
    5.0760    0.3980    3.2420 O   0  0
    4.8030   -0.3560    1.0550 C   0  0
    5.3530   -0.8070    0.1020 C   0  0
    6.0210   -1.3630   -1.0700 C   0  0
   -2.5590    0.2560   -3.6720 H   0  0
   -3.5630    1.3930   -2.6930 H   0  0
   -2.6950   -1.8240    0.2760 H   0  0
   -1.4830    1.4340   -2.2730 H   0  0
    0.4410    1.8960   -0.8100 H   0  0
   -5.6990    1.8140   -3.5350 H   0  0
   -3.9120   -2.0530   -4.2210 H   0  0
   -1.0700   -1.0430    2.9630 H   0  0
   -1.2660   -2.5240    2.0730 H   0  0
   -7.7010    1.0590   -4.7870 H   0  0
   -5.9530   -2.7230   -5.4550 H   0  0
    1.0310   -2.8990    1.8690 H   0  0
    0.9430   -2.1190    3.4180 H   0  0
    2.1820   -1.2770    0.8770 H   0  0
    1.8500    2.4410    0.8010 H   0  0
    2.5980    1.0920   -0.0150 H   0  0
    0.1830    0.3530    3.4670 H   0  0
    1.4410    1.4670    3.4570 H   0  0
    3.4760   -1.7720    2.9140 H   0  0
    2.7050   -0.4510    3.7420 H   0  0
    4.2150    2.2420    1.4400 H   0  0
    3.1620    2.0620    2.8110 H   0  0
   -0.6580    2.7320    3.4960 H   0  0
    0.0490    2.9880    1.8890 H   0  0
   -1.2830    1.8550    2.1020 H   0  0
    5.6370    1.1410    2.9650 H   0  0
    5.3260   -1.9790   -1.6420 H   0  0
    6.8670   -1.9810   -0.7670 H   0  0
    6.3870   -0.5610   -1.7130 H   0  0
  1  2  1  0
  1  3  1  0
  2  4  2  0
  2  5  1  0
  3  6  1  0
  4  7  1  0
  5  8  2  0
  6  9  2  0
  6 10  1  0
  7 11  2  0
  7 12  1  0
  9 13  1  0
 10 14  2  0
 11 15  1  0
 12 16  1  0
 13 17  2  0
 15 18  1  0
 15 19  1  0
 15 20  1  0
 18 21  1  0
 19 22  1  0
 20 23  1  0
 21 24  1  0
 24 25  1  0
 24 26  1  0
 26 27  3  0
 27 28  1  0
  8 11  1  0
 14 17  1  0
 16 18  1  0
 22 24  1  0
  3 29  1  0
  3 30  1  0
  4 31  1  0
  5 32  1  0
  8 33  1  0
  9 34  1  0
 10 35  1  0
 12 36  1  0
 12 37  1  0
 13 38  1  0
 14 39  1  0
 16 40  1  0
 16 41  1  0
 18 42  1  0
 19 43  1  0
 19 44  1  0
 20 45  1  0
 20 46  1  0
 21 47  1  0
 21 48  1  0
 22 49  1  0
 22 50  1  0
 23 51  1  0
 23 52  1  0
 23 53  1  0
 25 54  1  0
 28 55  1  0
 28 56  1  0
 28 57  1  0
M  END
> <Name>
CHEMBL457035

> <IC50 nM>
31

> <Molecule_ChEMBL_ID>
CHEMBL457035

> <Smiles>
CC#C[C@@]1(O)CC[C@@]2(CC)c3ccc(OCc4ccncc4)cc3CC[C@@H]2C1

$$$$
CHEMBL470152
  SciTegic08162514323D

 46 48  0  0  1  0            999 V2000
   -4.5820   -0.5960   -3.2250 O   0  0
   -3.5350   -0.3550   -2.4240 C   0  0
   -3.3240   -1.1540   -1.2760 C   0  0
   -2.6410    0.6970   -2.7190 C   0  0
   -2.2210   -0.9040   -0.4240 C   0  0
   -1.5370    0.9550   -1.8710 C   0  0
   -1.3130    0.1540   -0.7170 C   0  0
   -2.0020   -1.7340    0.7850 C   0  0
   -0.1560    0.3710    0.2170 C   0  0  1  0  0  0
   -0.5160   -2.0720    1.0330 C   0  0
   -0.6760    0.9980    1.4940 C   0  0
    0.4960   -1.0140    0.5170 C   0  0  2  0  0  0
    0.9390    1.3200   -0.3560 C   0  0
   -1.6800    1.8850    1.4100 C   0  0
    1.7290   -0.9080    1.4390 C   0  0
    2.1680    1.4430    0.5660 C   0  0
   -2.1970    2.5080    2.6800 C   0  0
    2.7970    0.0740    0.9040 C   0  0  1  0  0  0
    3.7640    0.2700    1.9180 O   0  0
    3.4820   -0.4860   -0.2680 C   0  0
    4.0330   -0.9370   -1.2210 C   0  0
    4.7010   -1.4920   -2.3930 C   0  0
   -5.1860   -1.3160   -3.0080 H   0  0
   -4.0120   -1.9570   -1.0490 H   0  0
   -2.7970    1.3090   -3.5940 H   0  0
   -0.8790    1.7700   -2.1290 H   0  0
   -2.3950   -1.1840    1.6390 H   0  0
   -2.5800   -2.6580    0.7380 H   0  0
   -0.2850   -3.0270    0.5580 H   0  0
   -0.3790   -2.2440    2.1010 H   0  0
   -0.1990    0.6840    2.4100 H   0  0
    0.8590   -1.4000   -0.4380 H   0  0
    0.5350    2.3200   -0.5140 H   0  0
    1.2720    0.9690   -1.3320 H   0  0
   -2.0390    2.0840    0.4100 H   0  0
    2.1580   -1.9000    1.5940 H   0  0
    1.3910   -0.5820    2.4260 H   0  0
    2.9020    2.1110    0.1090 H   0  0
    1.8550    1.9410    1.4860 H   0  0
   -2.7230    3.4360    2.4490 H   0  0
   -2.8420    1.8010    3.2010 H   0  0
   -1.3650    2.7500    3.3400 H   0  0
    4.3520    0.9810    1.6190 H   0  0
    4.0100   -2.1090   -2.9670 H   0  0
    5.5470   -2.1090   -2.0880 H   0  0
    5.0680   -0.6890   -3.0330 H   0  0
  1  2  1  0
  2  3  2  0
  2  4  1  0
  3  5  1  0
  4  6  2  0
  5  7  2  0
  5  8  1  0
  7  9  1  0
  8 10  1  0
  9 11  1  0
  9 12  1  0
  9 13  1  0
 11 14  2  0
 12 15  1  0
 13 16  1  0
 14 17  1  0
 15 18  1  0
 18 19  1  0
 18 20  1  0
 20 21  3  0
 21 22  1  0
  6  7  1  0
 10 12  1  0
 16 18  1  0
  1 23  1  0
  3 24  1  0
  4 25  1  0
  6 26  1  0
  8 27  1  0
  8 28  1  0
 10 29  1  0
 10 30  1  0
 11 31  1  0
 12 32  1  0
 13 33  1  0
 13 34  1  0
 14 35  1  0
 15 36  1  0
 15 37  1  0
 16 38  1  0
 16 39  1  0
 17 40  1  0
 17 41  1  0
 17 42  1  0
 19 43  1  0
 22 44  1  0
 22 45  1  0
 22 46  1  0
M  END
> <Name>
CHEMBL470152

> <IC50 nM>
3.5

> <Molecule_ChEMBL_ID>
CHEMBL470152

> <Smiles>
CC#C[C@@]1(O)CC[C@@]2(/C=C/C)c3ccc(O)cc3CC[C@@H]2C1

$$$$
CHEMBL3582116
  SciTegic08162514323D

 52 55  0  0  0  0            999 V2000
    3.7300   -2.3090   -0.6860 O   0  0
    2.7710   -1.8530   -0.1020 C   0  0
    1.9760   -2.7170    0.8650 C   0  0
    2.3420   -0.4100   -0.3200 C   0  0
    0.5250   -2.4000    0.8570 N   0  0
    2.1500   -4.1970    0.5000 C   0  0
    2.5210   -2.4840    2.2770 C   0  0
    0.8750   -0.2050   -0.1460 C   0  0
    3.0980    0.4550    0.6950 C   0  0
    2.7600    0.0040   -1.7420 C   0  0
    0.0510   -1.2110    0.4120 C   0  0
    0.2640    1.0120   -0.5310 C   0  0
   -1.3600   -1.0510    0.5570 C   0  0
   -1.1330    1.2050   -0.3870 C   0  0
   -1.9380    0.1660    0.1520 C   0  0
   -2.4120   -1.9940    1.0980 C   0  0
   -1.4280    2.5700   -0.8850 C   0  0
   -3.4260    0.1700    0.3770 C   0  0
   -3.7540   -1.2890    0.7770 C   0  0
   -1.2620    3.7210   -0.2130 N   0  0
   -1.9280    2.7810   -2.1580 C   0  0
   -1.6720    4.6780   -1.1000 C   0  0
   -0.7580    3.9200    1.1560 C   0  0
   -2.0800    4.1210   -2.2870 N   0  0
   -2.2660    1.7870   -3.2520 C   0  0
   -0.0820   -3.1150    1.2150 H   0  0
    1.8200   -4.4040   -0.5180 H   0  0
    1.5720   -4.8300    1.1740 H   0  0
    3.1950   -4.4940    0.5780 H   0  0
    2.2890   -1.4840    2.6430 H   0  0
    3.6030   -2.6030    2.2970 H   0  0
    2.0940   -3.2010    2.9770 H   0  0
    2.7750    0.2560    1.7170 H   0  0
    2.9340    1.5140    0.4940 H   0  0
    4.1700    0.2680    0.6410 H   0  0
    2.1580   -0.4920   -2.5040 H   0  0
    3.8050   -0.2520   -1.9280 H   0  0
    2.6500    1.0800   -1.8790 H   0  0
    0.8920    1.7910   -0.9410 H   0  0
   -2.2760   -2.1130    2.1640 H   0  0
   -2.3520   -2.9650    0.6290 H   0  0
   -3.9570    0.4730   -0.5160 H   0  0
   -3.6700    0.8610    1.1720 H   0  0
   -4.4380   -1.3320    1.6130 H   0  0
   -4.2350   -1.7890   -0.0510 H   0  0
   -1.6760    5.7380   -0.8930 H   0  0
   -1.3150    3.3790    1.9220 H   0  0
   -0.7910    4.9810    1.4040 H   0  0
    0.2830    3.5980    1.2110 H   0  0
   -1.7050    2.0350   -4.1520 H   0  0
   -2.0670    0.7750   -2.8970 H   0  0
   -3.3260    1.8560   -3.4880 H   0  0
  1  2  2  0
  2  3  1  0
  2  4  1  0
  3  5  1  0
  3  6  1  0
  3  7  1  0
  4  8  1  0
  4  9  1  0
  4 10  1  0
  5 11  1  0
  8 12  2  0
 11 13  2  0
 12 14  1  0
 13 15  1  0
 13 16  1  0
 14 17  1  0
 15 18  1  0
 16 19  1  0
 17 20  1  0
 17 21  2  0
 20 22  1  0
 20 23  1  0
 21 24  1  0
 21 25  1  0
  8 11  1  0
 14 15  2  0
 18 19  1  0
 22 24  2  0
  5 26  1  0
  6 27  1  0
  6 28  1  0
  6 29  1  0
  7 30  1  0
  7 31  1  0
  7 32  1  0
  9 33  1  0
  9 34  1  0
  9 35  1  0
 10 36  1  0
 10 37  1  0
 10 38  1  0
 12 39  1  0
 16 40  1  0
 16 41  1  0
 18 42  1  0
 18 43  1  0
 19 44  1  0
 19 45  1  0
 22 46  1  0
 23 47  1  0
 23 48  1  0
 23 49  1  0
 25 50  1  0
 25 51  1  0
 25 52  1  0
M  END
> <Name>
CHEMBL3582116

> <IC50 nM>
150

> <Molecule_ChEMBL_ID>
CHEMBL3582116

> <Smiles>
Cc1ncn(C)c1-c1cc2c(c3c1CCC3)NC(C)(C)C(=O)C2(C)C

$$$$
CHEMBL3582113
  SciTegic08162514323D

 54 57  0  0  0  0            999 V2000
    4.4530    1.0270   -0.6890 O   0  0
    3.3970    0.8650   -0.1190 C   0  0
    2.8260    1.9370    0.7830 C   0  0
    2.6020   -0.4180   -0.2850 C   0  0
    1.3520    2.0530    0.6390 N   0  0
    3.1560    1.5880    2.2360 C   0  0
    3.4570    3.2950    0.4410 C   0  0
    1.1230   -0.2190   -0.1760 C   0  0
    2.9490   -1.0100   -1.6640 C   0  0
    3.0640   -1.3890    0.8070 C   0  0
    0.5430    1.0160    0.2750 C   0  0
    0.2750   -1.2990   -0.5310 C   0  0
   -0.8910    1.1580    0.3400 C   0  0
   -1.1150   -1.1250   -0.4820 C   0  0
   -1.7340    0.0780   -0.0800 C   0  0
   -1.5100    2.4280    0.8420 C   0  0
   -1.9550   -2.2790   -0.8810 C   0  0
   -3.2210    0.1870   -0.0980 C   0  0
   -3.0160    2.3520    1.1410 C   0  0
   -2.9120   -2.8770   -0.0960 C   0  0
   -1.9000   -2.9280   -2.0980 C   0  0
   -3.7460    1.6230    0.0180 C   0  0
   -3.4380   -3.8910   -0.8460 O   0  0
   -3.3520   -2.5370    1.3150 C   0  0
   -2.8380   -3.9260   -2.0370 N   0  0
   -1.0210   -2.6640   -3.3010 C   0  0
    0.9650    2.9530    0.8380 H   0  0
    2.5160    0.7910    2.6170 H   0  0
    3.0250    2.4570    2.8810 H   0  0
    4.1900    1.2560    2.3260 H   0  0
    3.2660    3.5840   -0.5940 H   0  0
    4.5370    3.2660    0.5840 H   0  0
    3.0570    4.0780    1.0840 H   0  0
    2.5530   -0.4020   -2.4770 H   0  0
    2.5410   -2.0140   -1.7660 H   0  0
    4.0310   -1.0740   -1.7930 H   0  0
    2.6840   -1.1060    1.7890 H   0  0
    4.1520   -1.4120    0.8650 H   0  0
    2.7190   -2.4000    0.5940 H   0  0
    0.6930   -2.2460   -0.8420 H   0  0
   -1.0140    2.7520    1.7580 H   0  0
   -1.3360    3.2070    0.0960 H   0  0
   -3.6150   -0.4060    0.7290 H   0  0
   -3.6210   -0.2500   -1.0140 H   0  0
   -3.1860    1.8280    2.0820 H   0  0
   -3.4220    3.3550    1.2700 H   0  0
   -3.5980    2.1560   -0.9240 H   0  0
   -4.8200    1.6150    0.2030 H   0  0
   -3.3610   -3.3870    1.9960 H   0  0
   -4.3570   -2.1170    1.2910 H   0  0
   -2.6860   -1.7830    1.7310 H   0  0
    0.0230   -2.6510   -2.9920 H   0  0
   -1.2250   -3.4100   -4.0700 H   0  0
   -1.2600   -1.6840   -3.7170 H   0  0
  1  2  2  0
  2  3  1  0
  2  4  1  0
  3  5  1  0
  3  6  1  0
  3  7  1  0
  4  8  1  0
  4  9  1  0
  4 10  1  0
  5 11  1  0
  8 12  2  0
 11 13  2  0
 12 14  1  0
 13 15  1  0
 13 16  1  0
 14 17  1  0
 15 18  1  0
 16 19  1  0
 17 20  2  0
 17 21  1  0
 18 22  1  0
 20 23  1  0
 20 24  1  0
 21 25  2  0
 21 26  1  0
  8 11  1  0
 14 15  2  0
 19 22  1  0
 23 25  1  0
  5 27  1  0
  6 28  1  0
  6 29  1  0
  6 30  1  0
  7 31  1  0
  7 32  1  0
  7 33  1  0
  9 34  1  0
  9 35  1  0
  9 36  1  0
 10 37  1  0
 10 38  1  0
 10 39  1  0
 12 40  1  0
 16 41  1  0
 16 42  1  0
 18 43  1  0
 18 44  1  0
 19 45  1  0
 19 46  1  0
 22 47  1  0
 22 48  1  0
 24 49  1  0
 24 50  1  0
 24 51  1  0
 26 52  1  0
 26 53  1  0
 26 54  1  0
M  END
> <Name>
CHEMBL3582113

> <IC50 nM>
167

> <Molecule_ChEMBL_ID>
CHEMBL3582113

> <Smiles>
Cc1noc(C)c1-c1cc2c(c3c1CCCC3)NC(C)(C)C(=O)C2(C)C

$$$$
CHEMBL3582109
  SciTegic08162514323D

 44 46  0  0  0  0            999 V2000
   -3.8520   -0.4300   -1.1840 O   0  0
   -2.9140    0.0570   -0.5900 C   0  0
   -2.8930    1.5350   -0.2500 C   0  0
   -1.7290   -0.7950   -0.1640 C   0  0
   -1.5330    2.1190   -0.3810 N   0  0
   -3.8460    2.2990   -1.1800 C   0  0
   -3.3650    1.7090    1.1970 C   0  0
   -0.4400   -0.0390   -0.1410 C   0  0
   -2.0260   -1.3280    1.2420 C   0  0
   -1.6230   -1.9800   -1.1390 C   0  0
   -0.3990    1.3870   -0.2710 C   0  0
    0.7790   -0.7580    0.0160 C   0  0
    0.8570    2.0630   -0.2790 C   0  0
    1.9940   -0.0510    0.0100 C   0  0
    2.0680    1.3460   -0.1410 C   0  0
    3.2560   -0.8110    0.1700 C   0  0
    4.3200   -0.7830   -0.7010 C   0  0
    3.5510   -1.6620    1.2150 C   0  0
    5.2600   -1.6230   -0.1740 O   0  0
    4.4880   -0.0100   -1.9920 C   0  0
    4.8070   -2.1470    0.9650 N   0  0
    2.7230   -2.0370    2.4260 C   0  0
   -1.4750    3.1070   -0.5410 H   0  0
   -3.5610    2.1930   -2.2290 H   0  0
   -3.8460    3.3630   -0.9410 H   0  0
   -4.8650    1.9320   -1.0740 H   0  0
   -2.6150    1.3730    1.9120 H   0  0
   -4.2780    1.1390    1.3770 H   0  0
   -3.5800    2.7580    1.4080 H   0  0
   -2.0080   -0.5330    1.9880 H   0  0
   -1.2890   -2.0760    1.5330 H   0  0
   -3.0080   -1.7970    1.2770 H   0  0
   -1.3710   -1.6560   -2.1480 H   0  0
   -2.5690   -2.5230   -1.1890 H   0  0
   -0.8560   -2.6820   -0.8110 H   0  0
    0.7750   -1.8320    0.1390 H   0  0
    0.9100    3.1370   -0.3910 H   0  0
    3.0170    1.8610   -0.1460 H   0  0
    4.9840   -0.5660   -2.7870 H   0  0
    5.0700    0.8910   -1.8030 H   0  0
    3.5100    0.2970   -2.3610 H   0  0
    3.2750   -1.7970    3.3340 H   0  0
    1.7560   -1.5350    2.3750 H   0  0
    2.5410   -3.1130    2.4220 H   0  0
  1  2  2  0
  2  3  1  0
  2  4  1  0
  3  5  1  0
  3  6  1  0
  3  7  1  0
  4  8  1  0
  4  9  1  0
  4 10  1  0
  5 11  1  0
  8 12  2  0
 11 13  2  0
 12 14  1  0
 13 15  1  0
 14 16  1  0
 16 17  2  0
 16 18  1  0
 17 19  1  0
 17 20  1  0
 18 21  2  0
 18 22  1  0
  8 11  1  0
 14 15  2  0
 19 21  1  0
  5 23  1  0
  6 24  1  0
  6 25  1  0
  6 26  1  0
  7 27  1  0
  7 28  1  0
  7 29  1  0
  9 30  1  0
  9 31  1  0
  9 32  1  0
 10 33  1  0
 10 34  1  0
 10 35  1  0
 12 36  1  0
 13 37  1  0
 15 38  1  0
 20 39  1  0
 20 40  1  0
 20 41  1  0
 22 42  1  0
 22 43  1  0
 22 44  1  0
M  END
> <Name>
CHEMBL3582109

> <IC50 nM>
37

> <Molecule_ChEMBL_ID>
CHEMBL3582109

> <Smiles>
Cc1noc(C)c1-c1ccc2c(c1)C(C)(C)C(=O)C(C)(C)N2

$$$$
CHEMBL232452
  SciTegic08162514323D

 49 51  0  0  1  0            999 V2000
    0.2790   -0.9380    1.3320 S   0  0
    1.1910   -0.4940    2.3710 O   0  0
   -1.1060   -0.5800    1.5920 O   0  0
    0.7360   -0.0740   -0.1070 N   0  0
    0.3830   -2.6600    1.2190 C   0  0
    0.5430    1.3650   -0.1310 C   0  0  2  0  0  0
    0.7150   -3.4200    2.3560 C   0  0
    0.1330   -3.2990   -0.0120 C   0  0
    0.7210    1.9080   -1.5490 C   0  0
    1.4650    2.0450    0.8830 C   0  0
    0.7990   -4.8220    2.2600 C   0  0
    0.9780   -2.7520    3.6560 C   0  0
    0.2170   -4.6990   -0.1020 C   0  0
   -0.2190   -2.5020   -1.2150 C   0  0
    0.2910    3.3570   -1.6410 C   0  0
    0.5510   -5.4610    1.0330 C   0  0
   -0.9690    3.8500   -1.6760 C   0  0
    1.1370    4.4820   -1.7050 C   0  0
    0.6390   -6.9420    0.9360 C   0  0
   -0.9940    5.2190   -1.7600 C   0  0
   -2.1680    3.0940   -1.6350 C   0  0
    0.3260    5.6430   -1.7790 N   0  0
   -2.2130    5.9350   -1.8110 C   0  0
   -3.4040    3.7870   -1.6840 C   0  0
   -3.4280    5.2050   -1.7700 C   0  0
    1.7230   -0.2720   -0.3280 H   0  0
   -0.4980    1.4430    0.1840 H   0  0
    0.1520    1.3140   -2.2640 H   0  0
    1.7600    1.8160   -1.8670 H   0  0
    1.1820    1.7790    1.9000 H   0  0
    2.5020    1.7540    0.7150 H   0  0
    1.4040    3.1290    0.7930 H   0  0
    1.0550   -5.4060    3.1330 H   0  0
    0.2560   -1.9790    3.9180 H   0  0
    1.9670   -2.2910    3.6330 H   0  0
    0.9760   -3.4940    4.4530 H   0  0
    0.0270   -5.1920   -1.0450 H   0  0
   -0.9360   -1.7010   -1.0290 H   0  0
   -0.6450   -3.1580   -1.9750 H   0  0
    0.6840   -2.0530   -1.6310 H   0  0
    2.2190    4.5000   -1.7010 H   0  0
    0.4280   -7.3400   -0.0590 H   0  0
   -0.0660   -7.3950    1.6310 H   0  0
    1.6410   -7.2660    1.2190 H   0  0
   -2.1510    2.0150   -1.5700 H   0  0
    0.6460    6.5800   -1.8360 H   0  0
   -2.2210    7.0140   -1.8770 H   0  0
   -4.3320    3.2320   -1.6540 H   0  0
   -4.3730    5.7260   -1.8070 H   0  0
  1  2  2  0
  1  3  2  0
  1  4  1  0
  1  5  1  0
  4  6  1  0
  5  7  2  0
  5  8  1  0
  6  9  1  0
  6 10  1  0
  7 11  1  0
  7 12  1  0
  8 13  2  0
  8 14  1  0
  9 15  1  0
 11 16  2  0
 15 17  1  0
 15 18  2  0
 16 19  1  0
 17 20  1  0
 17 21  2  0
 18 22  1  0
 20 23  2  0
 21 24  1  0
 23 25  1  0
 13 16  1  0
 20 22  1  0
 24 25  2  0
  4 26  1  0
  6 27  1  0
  9 28  1  0
  9 29  1  0
 10 30  1  0
 10 31  1  0
 10 32  1  0
 11 33  1  0
 12 34  1  0
 12 35  1  0
 12 36  1  0
 13 37  1  0
 14 38  1  0
 14 39  1  0
 14 40  1  0
 18 41  1  0
 19 42  1  0
 19 43  1  0
 19 44  1  0
 21 45  1  0
 22 46  1  0
 23 47  1  0
 24 48  1  0
 25 49  1  0
M  END
> <Name>
CHEMBL232452

> <IC50 nM>
40

> <Molecule_ChEMBL_ID>
CHEMBL232452

> <Smiles>
Cc1cc(C)c(S(=O)(=O)NC(C)Cc2c[nH]c3ccccc23)c(C)c1

$$$$
CHEMBL233037
  SciTegic08162514323D

 42 44  0  0  1  0            999 V2000
    2.4410   -1.1410   -0.1150 S   0  0
    2.6890   -1.0020   -1.5410 O   0  0
    3.1430   -0.1520    0.6850 O   0  0
    0.7440   -0.8220    0.1070 N   0  0
    2.9630   -2.7110    0.3770 C   0  0
    0.2560    0.5120   -0.1950 C   0  0  2  0  0  0
    2.8560   -3.8010   -0.5040 C   0  0
    3.4960   -2.9000    1.6620 C   0  0
   -1.1480    0.7110    0.3810 C   0  0
    0.3180    0.7770   -1.6990 C   0  0
    2.3260   -3.6170   -1.7810 N   0  3
    3.2790   -5.0800   -0.1080 C   0  0
    3.9200   -4.1800    2.0640 C   0  0
   -1.5780    2.1620    0.2890 C   0  0
    2.9770   -4.0390   -2.7110 O   0  0
    1.2420   -3.0410   -1.8590 O   0  5
    3.8130   -5.2700    1.1800 C   0  0
   -2.8380    2.6520    0.2520 C   0  0
   -0.7320    3.2850    0.2250 C   0  0
   -2.8630    4.0220    0.1680 C   0  0
   -4.0370    1.8970    0.2930 C   0  0
   -1.5450    4.4450    0.1480 N   0  0
   -4.0820    4.7400    0.1190 C   0  0
   -5.2740    2.5900    0.2460 C   0  0
   -5.2970    4.0080    0.1580 C   0  0
    0.1930   -1.4980   -0.4400 H   0  0
    0.9800    1.1290    0.3360 H   0  0
    3.5800   -2.0660    2.3440 H   0  0
   -1.1880    0.3850    1.4200 H   0  0
   -1.8710    0.0840   -0.1430 H   0  0
   -0.1640    1.7250   -1.9450 H   0  0
    1.3540    0.8070   -2.0410 H   0  0
   -0.1910   -0.0100   -2.2520 H   0  0
    3.1950   -5.9160   -0.7870 H   0  0
    4.3300   -4.3260    3.0530 H   0  0
    4.1390   -6.2500    1.4880 H   0  0
    0.3500    3.3050    0.2280 H   0  0
   -4.0200    0.8180    0.3590 H   0  0
   -1.2230    5.3850    0.0940 H   0  0
   -4.0900    5.8180    0.0510 H   0  0
   -6.2010    2.0370    0.2750 H   0  0
   -6.2420    4.5290    0.1210 H   0  0
  1  2  2  0
  1  3  2  0
  1  4  1  0
  1  5  1  0
  4  6  1  0
  5  7  2  0
  5  8  1  0
  6  9  1  0
  6 10  1  0
  7 11  1  0
  7 12  1  0
  8 13  2  0
  9 14  1  0
 11 15  2  0
 11 16  1  0
 12 17  2  0
 14 18  1  0
 14 19  2  0
 18 20  1  0
 18 21  2  0
 19 22  1  0
 20 23  2  0
 21 24  1  0
 23 25  1  0
 13 17  1  0
 20 22  1  0
 24 25  2  0
  4 26  1  0
  6 27  1  0
  8 28  1  0
  9 29  1  0
  9 30  1  0
 10 31  1  0
 10 32  1  0
 10 33  1  0
 12 34  1  0
 13 35  1  0
 17 36  1  0
 19 37  1  0
 21 38  1  0
 22 39  1  0
 23 40  1  0
 24 41  1  0
 25 42  1  0
M  CHG  2  11   1  16  -1
M  END
> <Name>
CHEMBL233037

> <IC50 nM>
10000

> <Molecule_ChEMBL_ID>
CHEMBL233037

> <Smiles>
CC(Cc1c[nH]c2ccccc12)NS(=O)(=O)c1ccccc1[N+](=O)[O-]

$$$$
CHEMBL396275
  SciTegic08162514323D

 44 46  0  0  1  0            999 V2000
    1.5370    0.5160    1.5880 S   0  0
    2.7720    1.2620    1.7460 O   0  0
    0.4790    0.9650    2.4770 O   0  0
    0.9790    0.8460   -0.0250 N   0  0
    1.8590   -1.1470    1.9260 C   0  0
   -0.1580    0.0900   -0.5240 C   0  0  2  0  0  0
    1.0250   -1.8590    2.8030 C   0  0
    2.9550   -1.7830    1.3200 C   0  0
   -0.4730    0.4840   -1.9670 C   0  0
   -1.3590    0.2520    0.4080 C   0  0
    1.2890   -3.2130    3.0760 C   0  0
    3.2170   -3.1370    1.5940 C   0  0
   -0.9020    1.9360   -2.0590 C   0  0
    2.3850   -3.8560    2.4730 C   0  0
   -2.1620    2.4260   -2.0960 C   0  0
   -0.0570    3.0590   -2.1230 C   0  0
    2.6310   -5.1230    2.7300 O   0  0
   -2.1870    3.7950   -2.1800 C   0  0
   -3.3610    1.6700   -2.0550 C   0  0
   -0.8690    4.2190   -2.1990 N   0  0
    3.7500   -5.7270    2.0980 C   0  0
   -3.4060    4.5120   -2.2290 C   0  0
   -4.5980    2.3630   -2.1020 C   0  0
   -4.6210    3.7810   -2.1900 C   0  0
    1.7580    0.7300   -0.6900 H   0  0
    0.2310   -0.9280   -0.4790 H   0  0
    0.1820   -1.3690    3.2680 H   0  0
    3.5960   -1.2360    0.6440 H   0  0
   -1.2540   -0.1520   -2.3790 H   0  0
    0.3950    0.3200   -2.6100 H   0  0
   -1.5720    1.3010    0.6170 H   0  0
   -1.1780   -0.2460    1.3590 H   0  0
   -2.2520   -0.1880   -0.0350 H   0  0
    0.6470   -3.7580    3.7520 H   0  0
    4.0610   -3.6250    1.1290 H   0  0
    1.0250    3.0780   -2.1190 H   0  0
   -3.3440    0.5920   -1.9880 H   0  0
   -0.5470    5.1580   -2.2540 H   0  0
    3.5780   -5.7210    1.0210 H   0  0
    4.6520   -5.2230    2.4450 H   0  0
    3.8070   -6.7680    2.4200 H   0  0
   -3.4160    5.5920   -2.2950 H   0  0
   -5.5250    1.8110   -2.0720 H   0  0
   -5.5660    4.3030   -2.2250 H   0  0
  1  2  2  0
  1  3  2  0
  1  4  1  0
  1  5  1  0
  4  6  1  0
  5  7  2  0
  5  8  1  0
  6  9  1  0
  6 10  1  0
  7 11  1  0
  8 12  2  0
  9 13  1  0
 11 14  2  0
 13 15  1  0
 13 16  2  0
 14 17  1  0
 15 18  1  0
 15 19  2  0
 16 20  1  0
 17 21  1  0
 18 22  2  0
 19 23  1  0
 22 24  1  0
 12 14  1  0
 18 20  1  0
 23 24  2  0
  4 25  1  0
  6 26  1  0
  7 27  1  0
  8 28  1  0
  9 29  1  0
  9 30  1  0
 10 31  1  0
 10 32  1  0
 10 33  1  0
 11 34  1  0
 12 35  1  0
 16 36  1  0
 19 37  1  0
 20 38  1  0
 21 39  1  0
 21 40  1  0
 21 41  1  0
 22 42  1  0
 23 43  1  0
 24 44  1  0
M  END
> <Name>
CHEMBL396275

> <IC50 nM>
10000

> <Molecule_ChEMBL_ID>
CHEMBL396275

> <Smiles>
COc1ccc(S(=O)(=O)NC(C)Cc2c[nH]c3ccccc23)cc1

$$$$
CHEMBL1084388
  SciTegic08162514323D

 38 41  0  0  0  0            999 V2000
    4.4750    5.9140   -0.8030 F   0  0
    3.9880    4.6780   -0.7090 C   0  0
    4.5200    3.6480   -1.5040 C   0  0
    2.9410    4.4020    0.1880 C   0  0
    4.0060    2.3440   -1.4040 C   0  0
    2.4240    3.1000    0.2890 C   0  0
    2.9570    2.0660   -0.5060 C   0  0
    2.4590    0.8070   -0.4100 N   0  0
    3.2070   -0.3500   -0.3850 N   0  0
    1.1500    0.4510   -0.3180 C   0  0
    2.4770   -1.5160   -0.2810 C   0  0
    1.2250   -0.9260   -0.2460 C   0  0
   -0.0700    1.1620   -0.2930 C   0  0
    0.0270   -1.6800   -0.1370 C   0  0
   -1.2680    0.4120   -0.1860 C   0  0
   -1.2270   -1.0100   -0.1070 C   0  0
   -2.4650   -1.7720    0.0040 C   0  0
   -2.8890   -2.2930    1.2460 C   0  0
   -3.2440   -1.9900   -1.1480 C   0  0
   -4.0860   -3.0250    1.3240 C   0  0
   -2.0900   -2.0840    2.4880 C   0  0
   -4.4400   -2.7230   -1.0630 C   0  0
   -4.8610   -3.2400    0.1720 C   0  0
   -1.7600   -0.7580    2.6000 F   0  0
   -0.9450   -2.8360    2.4280 F   0  0
   -2.8300   -2.4650    3.5760 F   0  0
    5.3240    3.8550   -2.1930 H   0  0
    2.5290    5.1910    0.8010 H   0  0
    4.4280    1.5660   -2.0230 H   0  0
    1.6190    2.9080    0.9840 H   0  0
    2.8280   -2.5370   -0.2420 H   0  0
   -0.0940    2.2400   -0.3520 H   0  0
    0.0680   -2.7600   -0.0780 H   0  0
   -2.2130    0.9370   -0.1640 H   0  0
   -2.9380   -1.6000   -2.1070 H   0  0
   -4.4180   -3.4280    2.2720 H   0  0
   -5.0350   -2.8890   -1.9490 H   0  0
   -5.7790   -3.8030    0.2380 H   0  0
  1  2  1  0
  2  3  2  0
  2  4  1  0
  3  5  1  0
  4  6  2  0
  5  7  2  0
  7  8  1  0
  8  9  1  0
  8 10  1  0
  9 11  2  0
 10 12  1  0
 10 13  2  0
 12 14  2  0
 13 15  1  0
 14 16  1  0
 16 17  1  0
 17 18  2  0
 17 19  1  0
 18 20  1  0
 18 21  1  0
 19 22  2  0
 20 23  2  0
 21 24  1  0
 21 25  1  0
 21 26  1  0
  6  7  1  0
 11 12  1  0
 15 16  2  0
 22 23  1  0
  3 27  1  0
  4 28  1  0
  5 29  1  0
  6 30  1  0
 11 31  1  0
 13 32  1  0
 14 33  1  0
 15 34  1  0
 19 35  1  0
 20 36  1  0
 22 37  1  0
 23 38  1  0
M  END
> <Name>
CHEMBL1084388

> <IC50 nM>
251.19

> <Molecule_ChEMBL_ID>
CHEMBL1084388

> <Smiles>
Fc1ccc(-n2ncc3cc(-c4ccccc4C(F)(F)F)ccc32)cc1

$$$$
CHEMBL4093329
  SciTegic08162514323D

 52 55  0  0  0  0            999 V2000
    0.9200    0.8380   -2.6070 S   0  0
    1.2380   -0.5200   -3.0100 O   0  0
    1.5310    1.8460   -3.4550 O   0  0
    1.4960    1.0490   -1.1070 N   0  0
   -0.7930    1.0390   -2.6760 C   0  0
    0.6480    0.9980   -0.0350 C   0  0
    2.9320    1.2950   -0.9000 C   0  0
   -1.3400    2.1910   -3.2660 C   0  0
   -1.6350    0.0470   -2.1430 C   0  0
   -0.4320    1.8980    0.0550 C   0  0
    0.8520    0.0470    0.9830 C   0  0
    3.7400    0.0760   -1.1680 C   0  0
   -2.7340    2.3560   -3.3240 C   0  0
   -3.0310    0.2070   -2.1970 C   0  0
   -1.3030    1.8440    1.1580 C   0  0
   -0.0200   -0.0020    2.0840 C   0  0
    4.0680   -0.2730   -2.4880 C   0  0
    4.1760   -0.7270   -0.1000 C   0  0
   -3.5760    1.3610   -2.7890 C   0  0
   -1.1000    0.8950    2.1740 C   0  0
    4.8340   -1.4260   -2.7420 C   0  0
    4.9390   -1.8790   -0.3510 C   0  0
   -5.0040    1.5270   -2.8460 C   0  0
   -1.9160    0.8460    3.2070 O   0  0
    5.2700   -2.2290   -1.6740 C   0  0
   -6.1540    1.6620   -2.8930 N   0  0
   -2.2050   -0.3360    3.7110 C   0  0
   -2.3420   -0.4960    5.1020 C   0  0
   -2.3770   -1.4430    2.8630 C   0  0
   -2.6510   -1.7580    5.6410 C   0  0
   -2.6860   -2.7050    3.4010 C   0  0
   -2.8220   -2.8610    4.7890 C   0  0
    3.0940    1.6210    0.1270 H   0  0
    3.2560    2.1000   -1.5600 H   0  0
   -0.6910    2.9510   -3.6740 H   0  0
   -1.2110   -0.8380   -1.6890 H   0  0
   -0.6060    2.6350   -0.7170 H   0  0
    1.6760   -0.6520    0.9340 H   0  0
   -3.1430    3.2480   -3.7790 H   0  0
   -3.6680   -0.5630   -1.7830 H   0  0
   -2.1290    2.5350    1.2230 H   0  0
    0.1410   -0.7340    2.8630 H   0  0
    3.7360    0.3400   -3.3140 H   0  0
    3.9260   -0.4650    0.9180 H   0  0
    5.0860   -1.6930   -3.7580 H   0  0
    5.2750   -2.4960    0.4690 H   0  0
    5.8550   -3.1130   -1.8670 H   0  0
   -2.2110    0.3500    5.7600 H   0  0
   -2.2740   -1.3280    1.7930 H   0  0
   -2.7560   -1.8770    6.7090 H   0  0
   -2.8180   -3.5550    2.7460 H   0  0
   -3.0610   -3.8320    5.2030 H   0  0
  1  2  2  0
  1  3  2  0
  1  4  1  0
  1  5  1  0
  4  6  1  0
  4  7  1  0
  5  8  2  0
  5  9  1  0
  6 10  2  0
  6 11  1  0
  7 12  1  0
  8 13  1  0
  9 14  2  0
 10 15  1  0
 11 16  2  0
 12 17  2  0
 12 18  1  0
 13 19  2  0
 15 20  2  0
 17 21  1  0
 18 22  2  0
 19 23  1  0
 20 24  1  0
 21 25  2  0
 23 26  3  0
 24 27  1  0
 27 28  2  0
 27 29  1  0
 28 30  1  0
 29 31  2  0
 30 32  2  0
 14 19  1  0
 16 20  1  0
 22 25  1  0
 31 32  1  0
  7 33  1  0
  7 34  1  0
  8 35  1  0
  9 36  1  0
 10 37  1  0
 11 38  1  0
 13 39  1  0
 14 40  1  0
 15 41  1  0
 16 42  1  0
 17 43  1  0
 18 44  1  0
 21 45  1  0
 22 46  1  0
 25 47  1  0
 28 48  1  0
 29 49  1  0
 30 50  1  0
 31 51  1  0
 32 52  1  0
M  END
> <Name>
CHEMBL4093329

> <IC50 nM>
1430

> <Molecule_ChEMBL_ID>
CHEMBL4093329

> <Smiles>
N#Cc1ccc(S(=O)(=O)N(Cc2ccccc2)c2ccc(Oc3ccccc3)cc2)cc1

$$$$
CHEMBL3892759
  SciTegic08162514323D

 59 62  0  0  1  0            999 V2000
    5.1720    7.8380   -0.4880 F   0  0
    4.6840    6.6020   -0.3920 C   0  0
    3.6500    6.3220    0.5180 C   0  0
    5.2030    5.5760   -1.2030 C   0  0
    3.1350    5.0200    0.6190 C   0  0
    4.6870    4.2720   -1.1030 C   0  0
    3.6520    3.9900   -0.1910 C   0  0
    3.1540    2.7300   -0.0940 N   0  0
    3.9040    1.5740   -0.0700 N   0  0
    1.8480    2.3750   -0.0040 C   0  0
    3.1740    0.4080    0.0350 C   0  0
    1.9220    0.9980    0.0700 C   0  0
    0.6250    3.0860    0.0240 C   0  0
    0.7240    0.2420    0.1780 C   0  0
   -0.5720    2.3360    0.1310 C   0  0
   -0.5240    0.9180    0.2070 C   0  0
   -1.6600    0.2150    0.3110 O   0  0
   -1.5740   -1.1350    0.7380 C   0  0  2  0  0  0
   -1.1820   -1.9940   -0.4100 C   0  0
   -2.9120   -1.5680    1.3340 C   0  0  1  0  0  0
   -0.4830   -3.1930   -0.1850 C   0  0
   -1.5100   -1.6110   -1.7230 C   0  0
   -3.1840   -0.8590    2.5940 N   0  0
   -4.0740   -1.4080    0.3540 C   0  0
   -0.1110   -4.0060   -1.2710 C   0  0
   -1.1410   -2.4240   -2.8090 C   0  0
   -2.5060   -1.2190    3.7230 C   0  0
   -0.4420   -3.6210   -2.5840 C   0  0
   -1.6920   -2.1090    3.6900 O   0  0
   -2.7950   -0.4810    5.0040 C   0  0
   -0.0490   -4.4810   -3.7320 C   0  0
   -1.9300   -0.9410    6.0180 O   0  0
   -1.2560   -5.1990   -4.3360 C   0  0
    3.2480    7.1070    1.1430 H   0  0
    5.9960    5.7870   -1.9020 H   0  0
    2.3380    4.8240    1.3260 H   0  0
    5.1000    3.4980   -1.7340 H   0  0
    3.5270   -0.6150    0.0720 H   0  0
    0.6010    4.1640   -0.0350 H   0  0
    0.7520   -0.8380    0.2380 H   0  0
   -1.5240    2.8460    0.1520 H   0  0
   -0.7790   -1.2070    1.4810 H   0  0
   -2.8580   -2.5940    1.7010 H   0  0
   -0.2270   -3.4960    0.8180 H   0  0
   -2.0490   -0.6910   -1.9020 H   0  0
   -3.8580   -0.1210    2.6230 H   0  0
   -4.1740   -0.3790    0.0080 H   0  0
   -5.0180   -1.6930    0.8220 H   0  0
   -3.9320   -2.0410   -0.5210 H   0  0
    0.4260   -4.9260   -1.0920 H   0  0
   -1.3970   -2.1210   -3.8120 H   0  0
   -3.8210   -0.6740    5.3190 H   0  0
   -2.6190    0.5860    4.8650 H   0  0
    0.4550   -3.8750   -4.4840 H   0  0
    0.7030   -5.2010   -3.4080 H   0  0
   -2.1450   -0.4450    6.8220 H   0  0
   -2.0060   -4.4790   -4.6660 H   0  0
   -0.9550   -5.8130   -5.1860 H   0  0
   -1.7230   -5.8540   -3.6000 H   0  0
  1  2  1  0
  2  3  2  0
  2  4  1  0
  3  5  1  0
  4  6  2  0
  5  7  2  0
  7  8  1  0
  8  9  1  0
  8 10  1  0
  9 11  2  0
 10 12  1  0
 10 13  2  0
 12 14  2  0
 13 15  1  0
 14 16  1  0
 16 17  1  0
 18 17  1  0
 18 19  1  0
 18 20  1  0
 19 21  2  0
 19 22  1  0
 20 23  1  0
 20 24  1  0
 21 25  1  0
 22 26  2  0
 23 27  1  0
 25 28  2  0
 27 29  2  0
 27 30  1  0
 28 31  1  0
 30 32  1  0
 31 33  1  0
  6  7  1  0
 11 12  1  0
 15 16  2  0
 26 28  1  0
  3 34  1  0
  4 35  1  0
  5 36  1  0
  6 37  1  0
 11 38  1  0
 13 39  1  0
 14 40  1  0
 15 41  1  0
 18 42  1  0
 20 43  1  0
 21 44  1  0
 22 45  1  0
 23 46  1  0
 24 47  1  0
 24 48  1  0
 24 49  1  0
 25 50  1  0
 26 51  1  0
 30 52  1  0
 30 53  1  0
 31 54  1  0
 31 55  1  0
 32 56  1  0
 33 57  1  0
 33 58  1  0
 33 59  1  0
M  END
> <Name>
CHEMBL3892759

> <IC50 nM>
0.21

> <Molecule_ChEMBL_ID>
CHEMBL3892759

> <Smiles>
CCc1ccc([C@@H](Oc2ccc3c(cnn3-c3ccc(F)cc3)c2)[C@H](C)NC(=O)CO)cc1

$$$$
CHEMBL373498
  SciTegic08162514323D

 51 53  0  0  1  0            999 V2000
    4.6720    4.1620    1.4200 F   0  0
    3.4340    3.9080    1.0000 C   0  0
    3.1150    2.6480    0.4670 C   0  0
    2.4450    4.9020    1.0920 C   0  0
    1.8070    2.3810    0.0250 C   0  0
    1.1390    4.6370    0.6500 C   0  0
    0.8140    3.3770    0.1150 C   0  0
    1.4790    1.0430   -0.5370 C   0  0
   -0.4160    3.1390   -0.2950 O   0  0
    0.7850    0.5550    0.7340 C   0  0
    2.7420    0.2460   -0.8630 C   0  0
    0.5250    1.1500   -1.7270 C   0  0
   -1.4240    4.0840    0.0290 C   0  0
    0.4980   -0.9470    0.7090 C   0  0  1  0  0  0
    1.7190   -1.6310    0.8870 O   0  0
   -0.3950   -1.2420    1.9140 C   0  0
   -0.1190   -1.4080   -0.6110 C   0  0
    0.0920   -0.5860    3.0160 F   0  0
   -0.4080   -2.5920    2.1540 F   0  0
   -1.6700   -0.8110    1.6520 F   0  0
   -0.6230   -2.7870   -0.5040 N   0  0
   -1.9000   -3.2110   -0.4820 C   0  0
    0.1170   -3.9490   -0.4020 C   0  0
   -1.9320   -4.5920   -0.3730 C   0  0
   -3.1000   -2.4610   -0.5550 C   0  0
   -0.6780   -5.0760   -0.3200 N   0  0
   -3.1600   -5.2930   -0.3300 C   0  0
   -4.3400   -3.1450   -0.5140 C   0  0
   -4.3690   -4.5590   -0.4020 C   0  0
    3.8750    1.8850    0.3980 H   0  0
    2.6860    5.8730    1.5000 H   0  0
    0.3810    5.4040    0.7210 H   0  0
   -0.1310    1.1170    0.9140 H   0  0
    1.3630    0.8220    1.6170 H   0  0
    3.4300    0.8120   -1.4920 H   0  0
    2.4900   -0.6740   -1.3910 H   0  0
    3.2720   -0.0250    0.0490 H   0  0
    0.6910    2.0640   -2.2990 H   0  0
   -0.5120    1.1520   -1.3910 H   0  0
    0.6560    0.3070   -2.4020 H   0  0
   -1.4200    4.2270    1.1110 H   0  0
   -1.2620    4.9770   -0.5740 H   0  0
   -2.3890    3.6640   -0.2480 H   0  0
    1.9450   -2.0390    0.0370 H   0  0
    0.6460   -1.3610   -1.3850 H   0  0
   -0.9340   -0.7480   -0.9060 H   0  0
    1.1990   -3.9770   -0.3870 H   0  0
   -3.0760   -1.3850   -0.6410 H   0  0
   -3.1800   -6.3710   -0.2440 H   0  0
   -5.2660   -2.5880   -0.5680 H   0  0
   -5.3160   -5.0760   -0.3710 H   0  0
  1  2  1  0
  2  3  2  0
  2  4  1  0
  3  5  1  0
  4  6  2  0
  5  7  2  0
  5  8  1  0
  7  9  1  0
  8 10  1  0
  8 11  1  0
  8 12  1  0
  9 13  1  0
 10 14  1  0
 14 15  1  0
 14 16  1  0
 14 17  1  0
 16 18  1  0
 16 19  1  0
 16 20  1  0
 17 21  1  0
 21 22  1  0
 21 23  1  0
 22 24  1  0
 22 25  2  0
 23 26  2  0
 24 27  2  0
 25 28  1  0
 27 29  1  0
  6  7  1  0
 24 26  1  0
 28 29  2  0
  3 30  1  0
  4 31  1  0
  6 32  1  0
 10 33  1  0
 10 34  1  0
 11 35  1  0
 11 36  1  0
 11 37  1  0
 12 38  1  0
 12 39  1  0
 12 40  1  0
 13 41  1  0
 13 42  1  0
 13 43  1  0
 15 44  1  0
 17 45  1  0
 17 46  1  0
 23 47  1  0
 25 48  1  0
 27 49  1  0
 28 50  1  0
 29 51  1  0
M  END
> <Name>
CHEMBL373498

> <IC50 nM>
54

> <Molecule_ChEMBL_ID>
CHEMBL373498

> <Smiles>
COc1ccc(F)cc1C(C)(C)CC(O)(Cn1cnc2ccccc21)C(F)(F)F

$$$$
CHEMBL371311
  SciTegic08162514323D

 43 47  0  0  1  0            999 V2000
    6.0960   -3.8970    1.3810 F   0  0
    5.2810   -2.8790    1.1090 C   0  0
    4.2290   -3.0450    0.1930 C   0  0
    5.4770   -1.6370    1.7380 C   0  0
    3.3690   -1.9710   -0.0940 C   0  0
    4.6170   -0.5610    1.4530 C   0  0
    3.5610   -0.7270    0.5370 C   0  0
    2.7300    0.3130    0.2600 N   0  0
    3.1390    1.5880    0.0210 N   0  0
    1.3770    0.2440    0.1740 C   0  0
    2.1090    2.4450   -0.2230 C   0  0
    1.0390    1.5630   -0.1070 C   0  0
    0.4080   -0.8630    0.3220 C   0  0
   -0.4410    1.9240   -0.2380 C   0  0
   -0.8690   -0.6050   -0.0250 C   0  0
   -1.2870    0.6970   -0.6820 C   0  0  1  0  0  0
   -2.0370   -1.5270    0.1840 C   0  0
   -2.7950    0.7110   -0.3420 C   0  0
   -1.1330    0.4980   -2.1930 C   0  0
   -3.2290   -0.7710   -0.4200 C   0  0
   -3.5800    1.5530   -1.1580 O   0  0
   -3.0820    1.2400    0.9390 O   0  0
   -4.7850    1.8610   -0.4940 C   0  0
   -4.4220    1.6910    0.9820 C   0  0
    4.0760   -3.9980   -0.2910 H   0  0
    6.2850   -1.5060    2.4430 H   0  0
    2.5640   -2.1190   -0.8010 H   0  0
    4.7830    0.3870    1.9470 H   0  0
    2.1620    3.5040   -0.4390 H   0  0
    0.7110   -1.8320    0.6970 H   0  0
   -0.7600    2.2870    0.7380 H   0  0
   -0.5680    2.7540   -0.9360 H   0  0
   -1.8770   -2.4820   -0.2930 H   0  0
   -2.1820   -1.6930    1.2420 H   0  0
   -0.0840    0.3750   -2.4610 H   0  0
   -1.6900   -0.3790   -2.5250 H   0  0
   -1.5180    1.3610   -2.7380 H   0  0
   -3.3580   -1.0680   -1.4510 H   0  0
   -4.1560   -0.9880    0.0940 H   0  0
   -5.1090    2.8570   -0.7540 H   0  0
   -5.5390    1.1470   -0.7950 H   0  0
   -5.0350    0.9390    1.4550 H   0  0
   -4.4770    2.6090    1.5490 H   0  0
  1  2  1  0
  2  3  2  0
  2  4  1  0
  3  5  1  0
  4  6  2  0
  5  7  2  0
  7  8  1  0
  8  9  1  0
  8 10  1  0
  9 11  2  0
 10 12  2  0
 10 13  1  0
 12 14  1  0
 13 15  2  0
 14 16  1  0
 15 17  1  0
 16 18  1  0
 16 19  1  0
 17 20  1  0
 18 21  1  0
 18 22  1  0
 21 23  1  0
 22 24  1  0
  6  7  1  0
 11 12  1  0
 15 16  1  0
 18 20  1  0
 23 24  1  0
  3 25  1  0
  4 26  1  0
  5 27  1  0
  6 28  1  0
 11 29  1  0
 13 30  1  0
 14 31  1  0
 14 32  1  0
 17 33  1  0
 17 34  1  0
 19 35  1  0
 19 36  1  0
 19 37  1  0
 20 38  1  0
 20 39  1  0
 23 40  1  0
 23 41  1  0
 24 42  1  0
 24 43  1  0
M  END
> <Name>
CHEMBL371311

> <IC50 nM>
73

> <Molecule_ChEMBL_ID>
CHEMBL371311

> <Smiles>
C[C@]12Cc3cnn(-c4ccc(F)cc4)c3C=C1CCC21OCCO1

$$$$
CHEMBL391942
  SciTegic08162514323D

 56 59  0  0  1  0            999 V2000
    3.4470    0.3670    2.2380 F   0  0
    2.9060    1.6020    1.9880 C   0  0
    2.4550    2.1480    3.1600 F   0  0
    3.8630    2.4180    1.4410 F   0  0
    1.7400    1.4590    1.0100 C   0  0  3  0  0  0
    2.2690    1.2190   -0.2750 O   0  0
    0.8690    2.7130    0.9430 C   0  0
    0.9570    0.2190    1.4430 C   0  0
   -0.5550    2.3750    0.5390 C   0  0
    0.5820   -0.6890    0.2620 C   0  0  3  0  0  0
   -1.5200    1.8220    1.4200 N   0  0
   -1.1900    2.5180   -0.7010 C   0  0
    1.6460   -1.7190    0.0330 C   0  0
   -0.8010   -1.3110    0.5660 C   0  0
    0.4730    0.1780   -1.0000 C   0  0
   -2.7010    1.6480    0.6950 C   0  0
   -0.5680    3.0430   -1.8890 C   0  0
   -2.4630    2.0820   -0.5880 C   0  0
    1.3360   -3.1020   -0.1640 C   0  0
    3.0100   -1.3110   -0.0080 C   0  0
   -1.1080   -2.4940   -0.3520 C   0  0
   -0.7680   -0.1500   -1.8340 C   0  0
   -3.9650    1.1410    1.0780 C   0  0
   -0.0630    3.4690   -2.8440 N   0  0
   -3.4770    2.0390   -1.5820 C   0  0
    2.3810   -4.0350   -0.3850 C   0  0
   -0.0660   -3.5980   -0.1390 C   0  0
    4.0410   -2.2500   -0.2270 C   0  0
   -4.9980    1.0860    0.1050 C   0  0
   -4.7540    1.5330   -1.2210 C   0  0
    3.7270   -3.6110   -0.4140 C   0  0
    2.3480    2.0800   -0.7170 H   0  0
    1.2850    3.4340    0.2380 H   0  0
    0.8610    3.2290    1.9020 H   0  0
    1.5080   -0.3400    2.1990 H   0  0
    0.0680    0.5040    2.0080 H   0  0
   -1.3810    1.5980    2.3790 H   0  0
   -1.5820   -0.5570    0.4770 H   0  0
   -0.8400   -1.6560    1.6020 H   0  0
    0.4940    1.2360   -0.7420 H   0  0
    1.3750    0.0980   -1.6040 H   0  0
    3.2700   -0.2720    0.1290 H   0  0
   -2.1060   -2.8810   -0.1460 H   0  0
   -1.1080   -2.1700   -1.3930 H   0  0
   -1.1000    0.7270   -2.3890 H   0  0
   -0.5570   -0.9570   -2.5350 H   0  0
   -1.5880   -0.4710   -1.1930 H   0  0
   -4.1430    0.8050    2.0880 H   0  0
   -3.2950    2.3790   -2.5900 H   0  0
    2.1520   -5.0800   -0.5330 H   0  0
   -0.2380   -4.0740    0.8280 H   0  0
   -0.2070   -4.3730   -0.8960 H   0  0
    5.0720   -1.9240   -0.2500 H   0  0
   -5.9690    0.7010    0.3750 H   0  0
   -5.5430    1.4880   -1.9570 H   0  0
    4.5160   -4.3300   -0.5820 H   0  0
  1  2  1  0
  2  3  1  0
  2  4  1  0
  2  5  1  0
  5  6  1  0
  5  7  1  0
  5  8  1  0
  7  9  1  0
  8 10  1  0
  9 11  1  0
  9 12  2  0
 10 13  1  0
 10 14  1  0
 10 15  1  0
 11 16  1  0
 12 17  1  0
 12 18  1  0
 13 19  2  0
 13 20  1  0
 14 21  1  0
 15 22  1  0
 16 23  1  0
 17 24  3  0
 18 25  1  0
 19 26  1  0
 19 27  1  0
 20 28  2  0
 23 29  2  0
 25 30  2  0
 26 31  2  0
 16 18  2  0
 21 27  1  0
 28 31  1  0
 29 30  1  0
  6 32  1  0
  7 33  1  0
  7 34  1  0
  8 35  1  0
  8 36  1  0
 11 37  1  0
 14 38  1  0
 14 39  1  0
 15 40  1  0
 15 41  1  0
 20 42  1  0
 21 43  1  0
 21 44  1  0
 22 45  1  0
 22 46  1  0
 22 47  1  0
 23 48  1  0
 25 49  1  0
 26 50  1  0
 27 51  1  0
 27 52  1  0
 28 53  1  0
 29 54  1  0
 30 55  1  0
 31 56  1  0
M  END
> <Name>
CHEMBL391942

> <IC50 nM>
7.59

> <Molecule_ChEMBL_ID>
CHEMBL391942

> <Smiles>
CCC1(CC(O)(Cc2[nH]c3ccccc3c2C#N)C(F)(F)F)CCCc2ccccc21

$$$$
CHEMBL194114
  SciTegic08162514323D

 53 58  0  0  1  0            999 V2000
   -8.3650   -2.7660    0.4360 F   0  0
   -7.2680   -2.0670    0.1520 C   0  0
   -6.3050   -1.8340    1.1500 C   0  0
   -7.0720   -1.5610   -1.1450 C   0  0
   -5.1470   -1.0960    0.8520 C   0  0
   -5.9140   -0.8220   -1.4430 C   0  0
   -4.9490   -0.5860   -0.4450 C   0  0
   -3.8300    0.1270   -0.7340 N   0  0
   -3.8150    1.2890   -1.4430 N   0  0
   -2.5650   -0.2010   -0.3650 C   0  0
   -2.5650    1.8030   -1.6040 C   0  0
   -1.8260    0.8340   -0.9260 C   0  0
   -1.9980   -1.3220    0.4100 C   0  0
   -0.3050    0.8100   -0.7730 C   0  0
   -0.6950   -1.2340    0.7460 C   0  0
    0.1410    0.0040    0.4820 C   0  0  1  0  0  0
    0.1030   -2.3240    1.3980 C   0  0
    1.5620   -0.6170    0.4840 C   0  0  2  0  0  0
   -0.0040    0.8940    1.7230 C   0  0
    1.5020   -1.7190    1.5620 C   0  0
    2.5980    0.3180    0.7210 O   0  0
    1.9000   -1.1700   -0.7790 O   0  0
    3.0570    0.8200   -0.5120 C   0  0  2  0  0  0
    2.9260   -0.4160   -1.4000 C   0  0
    4.4410    1.3480   -0.3830 C   0  0
    5.4670    0.5230    0.1130 C   0  0
    4.7270    2.6740   -0.7600 C   0  0
    6.7740    1.0230    0.2340 C   0  0
    6.0330    3.1720   -0.6390 C   0  0
    7.0590    2.3480   -0.1430 C   0  0
   -6.4530   -2.2210    2.1480 H   0  0
   -7.8110   -1.7360   -1.9140 H   0  0
   -4.4180   -0.9260    1.6330 H   0  0
   -5.7830   -0.4400   -2.4470 H   0  0
   -2.2810    2.7070   -2.1210 H   0  0
   -2.6020   -2.1740    0.6930 H   0  0
    0.0920    0.3650   -1.6860 H   0  0
    0.0840    1.8300   -0.7360 H   0  0
   -0.3260   -2.6130    2.3480 H   0  0
    0.1290   -3.1920    0.7540 H   0  0
   -1.0250    1.2580    1.8200 H   0  0
    0.2660    0.3460    2.6250 H   0  0
    0.6520    1.7620    1.6520 H   0  0
    1.5880   -1.2850    2.5510 H   0  0
    2.2850   -2.4570    1.4690 H   0  0
    2.3870    1.6030   -0.8360 H   0  0
    3.8200   -1.0250   -1.4020 H   0  0
    2.6560   -0.1840   -2.4200 H   0  0
    5.2540   -0.4940    0.4040 H   0  0
    3.9430    3.3120   -1.1430 H   0  0
    7.5610    0.3910    0.6150 H   0  0
    6.2520    4.1890   -0.9280 H   0  0
    8.0650    2.7320   -0.0490 H   0  0
  1  2  1  0
  2  3  2  0
  2  4  1  0
  3  5  1  0
  4  6  2  0
  5  7  2  0
  7  8  1  0
  8  9  1  0
  8 10  1  0
  9 11  2  0
 10 12  2  0
 10 13  1  0
 12 14  1  0
 13 15  2  0
 14 16  1  0
 15 17  1  0
 16 18  1  0
 16 19  1  0
 17 20  1  0
 18 21  1  0
 18 22  1  0
 21 23  1  0
 22 24  1  0
 23 25  1  0
 25 26  2  0
 25 27  1  0
 26 28  1  0
 27 29  2  0
 28 30  2  0
  6  7  1  0
 11 12  1  0
 15 16  1  0
 18 20  1  0
 23 24  1  0
 29 30  1  0
  3 31  1  0
  4 32  1  0
  5 33  1  0
  6 34  1  0
 11 35  1  0
 13 36  1  0
 14 37  1  0
 14 38  1  0
 17 39  1  0
 17 40  1  0
 19 41  1  0
 19 42  1  0
 19 43  1  0
 20 44  1  0
 20 45  1  0
 23 46  1  0
 24 47  1  0
 24 48  1  0
 26 49  1  0
 27 50  1  0
 28 51  1  0
 29 52  1  0
 30 53  1  0
M  END
> <Name>
CHEMBL194114

> <IC50 nM>
65

> <Molecule_ChEMBL_ID>
CHEMBL194114

> <Smiles>
C[C@]12Cc3cnn(-c4ccc(F)cc4)c3C=C1CC[C@@]21OC[C@H](c2ccccc2)O1

$$$$
CHEMBL3233271
  SciTegic08162514323D

 57 59  0  0  1  0            999 V2000
   -5.6910    0.6390    2.4770 F   0  0
   -5.0610    0.4390    1.3220 C   0  0
   -3.8070   -0.1950    1.3050 C   0  0
   -5.6480    0.8630    0.1170 C   0  0
   -3.1410   -0.4060    0.0860 C   0  0
   -4.9820    0.6520   -1.1020 C   0  0
   -3.7270    0.0180   -1.1230 C   0  0
   -1.8120   -1.0800    0.0800 C   0  0
   -3.1110   -0.1740   -2.2720 O   0  0
   -1.0290    0.2210   -0.1070 C   0  0
   -1.6700   -2.0310   -1.1090 C   0  0
   -1.5210   -1.7580    1.4180 C   0  0
   -3.8380    0.0700   -3.4670 C   0  0
    0.4830    0.0200    0.0100 C   0  0  1  0  0  0
    0.7910   -1.2790   -0.4450 O   0  0
    1.1310    1.0250   -0.9390 C   0  0
    0.9860    0.1540    1.4470 C   0  0
    0.8420    0.7230   -2.4100 C   0  0
    0.8200    2.4750   -0.5640 C   0  0
    2.4940    0.0410    1.5120 C   0  0
    3.3560    1.1660    1.5880 N   0  0
    3.2830   -1.1270    1.5100 C   0  0
    4.6470    0.6720    1.6330 C   0  0
    4.5630   -0.6970    1.5840 C   0  0
    5.9220    1.2660    1.7130 C   0  0
    5.7350   -1.5040    1.6110 C   0  0
    7.0980    0.5450    1.7440 N   0  0
    6.9980   -0.8420    1.6930 C   0  0
   -3.3550   -0.5210    2.2320 H   0  0
   -6.6110    1.3500    0.1250 H   0  0
   -5.4370    0.9790   -2.0230 H   0  0
   -1.3710    0.9810    0.5960 H   0  0
   -1.2830    0.6890   -1.0570 H   0  0
   -1.2520   -1.5290   -1.9820 H   0  0
   -2.6390   -2.4410   -1.3930 H   0  0
   -1.0140   -2.8650   -0.8570 H   0  0
   -2.3100   -2.4550    1.7010 H   0  0
   -1.4280   -1.0200    2.2130 H   0  0
   -0.5860   -2.3160    1.3710 H   0  0
   -3.1950   -0.1720   -4.3130 H   0  0
   -4.7830   -0.4690   -3.4080 H   0  0
   -4.0640    1.1370   -3.5160 H   0  0
    1.7480   -1.3090   -0.5980 H   0  0
    2.1620    0.7770   -0.6910 H   0  0
    0.5370   -0.6070    2.0860 H   0  0
    0.6740    1.1060    1.8770 H   0  0
    0.9880   -0.3320   -2.6430 H   0  0
    1.4960    1.3030   -3.0590 H   0  0
   -0.1870    0.9790   -2.6600 H   0  0
    1.0350    2.6780    0.4840 H   0  0
   -0.2320    2.7010   -0.7380 H   0  0
    1.4120    3.1640   -1.1660 H   0  0
    3.0840    2.1210    1.6050 H   0  0
    2.9340   -2.1500    1.4610 H   0  0
    5.9870    2.3440    1.7540 H   0  0
    5.6800   -2.5820    1.5700 H   0  0
    7.9010   -1.4340    1.7170 H   0  0
  1  2  1  0
  2  3  2  0
  2  4  1  0
  3  5  1  0
  4  6  2  0
  5  7  2  0
  5  8  1  0
  7  9  1  0
  8 10  1  0
  8 11  1  0
  8 12  1  0
  9 13  1  0
 10 14  1  0
 14 15  1  0
 14 16  1  0
 14 17  1  0
 16 18  1  0
 16 19  1  0
 17 20  1  0
 20 21  1  0
 20 22  2  0
 21 23  1  0
 22 24  1  0
 23 25  1  0
 24 26  1  0
 25 27  2  0
 26 28  2  0
  6  7  1  0
 23 24  2  0
 27 28  1  0
  3 29  1  0
  4 30  1  0
  6 31  1  0
 10 32  1  0
 10 33  1  0
 11 34  1  0
 11 35  1  0
 11 36  1  0
 12 37  1  0
 12 38  1  0
 12 39  1  0
 13 40  1  0
 13 41  1  0
 13 42  1  0
 15 43  1  0
 16 44  1  0
 17 45  1  0
 17 46  1  0
 18 47  1  0
 18 48  1  0
 18 49  1  0
 19 50  1  0
 19 51  1  0
 19 52  1  0
 21 53  1  0
 22 54  1  0
 25 55  1  0
 26 56  1  0
 28 57  1  0
M  END
> <Name>
CHEMBL3233271

> <IC50 nM>
73

> <Molecule_ChEMBL_ID>
CHEMBL3233271

> <Smiles>
COc1ccc(F)cc1C(C)(C)CC(O)(Cc1cc2ccncc2[nH]1)C(C)C

$$$$
CHEMBL3094475
  SciTegic08162514323D

 54 55  0  0  1  0            999 V2000
   -1.1520    0.6090   -1.1640 S   0  0
   -2.5720    0.7480   -1.4360 O   0  0
   -0.4350    1.8730   -1.2030 O   0  0
   -1.0310    0.0390    0.4740 N   0  0
   -0.4690   -0.4370   -2.3580 C   0  0
   -1.5430    0.8910    1.5330 C   0  0  2  0  0  0
   -1.0570   -0.5250   -3.6350 C   0  0
    0.6720   -1.2030   -2.0530 C   0  0
   -0.9710    0.4690    2.8870 C   0  0
   -3.0720    0.9020    1.5170 C   0  0
   -0.5000   -1.3790   -4.6040 C   0  0
   -2.2620    0.2790   -3.9650 C   0  0
    1.2250   -2.0550   -3.0240 C   0  0
    1.2970   -1.1150   -0.7050 C   0  0
    0.5180    0.5060    2.8870 C   0  0
   -3.6500    2.2990    1.2850 C   0  0
    0.6410   -2.1430   -4.2990 C   0  0
    1.2660   -0.6890    2.8870 C   0  0
    1.1800    1.7460    2.8870 C   0  0
    1.2290   -3.0450   -5.3260 C   0  0
    2.6720   -0.6350    2.8870 C   0  0
    0.5860   -2.0120    2.8870 C   0  0
    2.5840    1.7990    2.8870 C   0  0
    3.3300    0.6070    2.8870 C   0  0
    3.2790    3.1110    2.8870 C   0  0
   -1.4860   -0.8810    0.5530 H   0  0
   -1.1480    1.8610    1.2340 H   0  0
   -1.3090   -0.5330    3.1520 H   0  0
   -1.3500    1.1090    3.6840 H   0  0
   -3.4550    0.1990    0.7790 H   0  0
   -3.4710    0.4710    2.4350 H   0  0
   -0.9490   -1.4470   -5.5840 H   0  0
   -2.2070    1.3200   -3.6450 H   0  0
   -3.1370   -0.1680   -3.4940 H   0  0
   -2.4220    0.2700   -5.0430 H   0  0
    2.1020   -2.6430   -2.7890 H   0  0
    1.3630   -0.1030   -0.3070 H   0  0
    2.3050   -1.5250   -0.7460 H   0  0
    0.7210   -1.7130    0.0020 H   0  0
   -4.7360    2.2620    1.2170 H   0  0
   -3.3670    2.9730    2.0940 H   0  0
   -3.2730    2.7210    0.3530 H   0  0
    0.6060    2.6640    2.8870 H   0  0
    2.1080   -3.5920   -4.9900 H   0  0
    1.5120   -2.4610   -6.2010 H   0  0
    0.4810   -3.7730   -5.6390 H   0  0
    3.2520   -1.5450    2.8870 H   0  0
    0.0430   -2.2360    3.8050 H   0  0
    1.3220   -2.8010    2.7340 H   0  0
   -0.1250   -2.0550    2.0600 H   0  0
    4.4100    0.6410    2.8870 H   0  0
    2.6110    3.9730    2.8870 H   0  0
    3.9180    3.1860    2.0060 H   0  0
    3.9180    3.1860    3.7670 H   0  0
  1  2  2  0
  1  3  2  0
  1  4  1  0
  1  5  1  0
  6  4  1  0
  5  7  2  0
  5  8  1  0
  6  9  1  0
  6 10  1  0
  7 11  1  0
  7 12  1  0
  8 13  2  0
  8 14  1  0
  9 15  1  0
 10 16  1  0
 11 17  2  0
 15 18  2  0
 15 19  1  0
 17 20  1  0
 18 21  1  0
 18 22  1  0
 19 23  2  0
 21 24  2  0
 23 25  1  0
 13 17  1  0
 23 24  1  0
  4 26  1  0
  6 27  1  0
  9 28  1  0
  9 29  1  0
 10 30  1  0
 10 31  1  0
 11 32  1  0
 12 33  1  0
 12 34  1  0
 12 35  1  0
 13 36  1  0
 14 37  1  0
 14 38  1  0
 14 39  1  0
 16 40  1  0
 16 41  1  0
 16 42  1  0
 19 43  1  0
 20 44  1  0
 20 45  1  0
 20 46  1  0
 21 47  1  0
 22 48  1  0
 22 49  1  0
 22 50  1  0
 24 51  1  0
 25 52  1  0
 25 53  1  0
 25 54  1  0
M  END
> <Name>
CHEMBL3094475

> <IC50 nM>
25

> <Molecule_ChEMBL_ID>
CHEMBL3094475

> <Smiles>
CCC(Cc1cc(C)ccc1C)NS(=O)(=O)c1c(C)cc(C)cc1C

$$$$
CHEMBL3094469
  SciTegic08162514323D

 51 52  0  0  1  0            999 V2000
    0.1760    1.3070   -0.9550 S   0  0
   -0.5310    2.5570   -1.1700 O   0  0
    1.6210    1.4530   -1.0020 O   0  0
   -0.2030    0.8130    0.6700 N   0  0
   -0.2990    0.1950   -2.1890 C   0  0
    0.2480    1.6560    1.7620 C   0  0  2  0  0  0
   -0.7250    0.6740   -3.4430 C   0  0
   -0.2580   -1.1890   -1.9410 C   0  0
    0.1210    0.9200    3.0960 C   0  0
   -0.4980    2.9920    1.7520 C   0  0
   -1.1090   -0.2320   -4.4450 C   0  0
   -0.7700    2.1370   -3.7130 C   0  0
   -0.6450   -2.0940   -2.9470 C   0  0
    0.1910   -1.7050   -0.6210 C   0  0
    0.8950   -0.3520    3.0960 C   0  0
    0.3950    4.1620    1.3360 C   0  0
   -1.0700   -1.6150   -4.1990 C   0  0
    0.2340   -1.5960    3.0960 C   0  0
    2.3010   -0.3030    3.0960 C   0  0
   -1.4790   -2.5720   -5.2620 C   0  0
    0.9840   -2.7870    3.0960 C   0  0
   -1.2520   -1.6700    3.0960 C   0  0
    3.0470   -1.4940    3.0960 C   0  0
    2.3890   -2.7360    3.0960 C   0  0
   -1.2230    0.6860    0.7600 H   0  0
    1.2970    1.7990    1.5000 H   0  0
   -0.9260    0.7070    3.3200 H   0  0
    0.4570    1.5510    3.9180 H   0  0
   -1.3810    2.9360    1.1170 H   0  0
   -0.9570    3.1840    2.7230 H   0  0
   -1.4380    0.1370   -5.4080 H   0  0
    0.1150    2.6820   -3.3790 H   0  0
   -1.6370    2.5700   -3.2150 H   0  0
   -0.8810    2.3050   -4.7830 H   0  0
   -0.6130   -3.1580   -2.7580 H   0  0
    1.0630   -1.1910   -0.2130 H   0  0
    0.4380   -2.7620   -0.7070 H   0  0
   -0.6210   -1.6090    0.1020 H   0  0
   -0.1800    5.0880    1.2970 H   0  0
    1.2210    4.2850    2.0350 H   0  0
    0.8160    3.9900    0.3460 H   0  0
    2.8130    0.6480    3.0960 H   0  0
   -1.4120   -3.6210   -4.9710 H   0  0
   -0.8500   -2.4300   -6.1410 H   0  0
   -2.5100   -2.3730   -5.5530 H   0  0
    0.4860   -3.7440    3.0960 H   0  0
   -1.7210   -1.2580    3.9900 H   0  0
   -1.5640   -2.7090    3.0040 H   0  0
   -1.6430   -1.1270    2.2340 H   0  0
    4.1250   -1.4550    3.0960 H   0  0
    2.9610   -3.6500    3.0960 H   0  0
  1  2  2  0
  1  3  2  0
  1  4  1  0
  1  5  1  0
  6  4  1  0
  5  7  2  0
  5  8  1  0
  6  9  1  0
  6 10  1  0
  7 11  1  0
  7 12  1  0
  8 13  2  0
  8 14  1  0
  9 15  1  0
 10 16  1  0
 11 17  2  0
 15 18  2  0
 15 19  1  0
 17 20  1  0
 18 21  1  0
 18 22  1  0
 19 23  2  0
 21 24  2  0
 13 17  1  0
 23 24  1  0
  4 25  1  0
  6 26  1  0
  9 27  1  0
  9 28  1  0
 10 29  1  0
 10 30  1  0
 11 31  1  0
 12 32  1  0
 12 33  1  0
 12 34  1  0
 13 35  1  0
 14 36  1  0
 14 37  1  0
 14 38  1  0
 16 39  1  0
 16 40  1  0
 16 41  1  0
 19 42  1  0
 20 43  1  0
 20 44  1  0
 20 45  1  0
 21 46  1  0
 22 47  1  0
 22 48  1  0
 22 49  1  0
 23 50  1  0
 24 51  1  0
M  END
> <Name>
CHEMBL3094469

> <IC50 nM>
83

> <Molecule_ChEMBL_ID>
CHEMBL3094469

> <Smiles>
CCC(Cc1ccccc1C)NS(=O)(=O)c1c(C)cc(C)cc1C

$$$$
CHEMBL65444
  SciTegic08162514323D

 49 52  0  0  1  0            999 V2000
   -4.0510   -1.6230    0.5270 S   0  0
   -3.8480   -2.4630   -0.6410 O   0  0
   -3.6860   -2.2750    1.7710 O   0  0
   -3.1020   -0.3220    0.3610 N   0  0
   -5.7740   -1.1520    0.6070 C   0  0
   -1.7700   -0.4670    0.3050 C   0  0
   -6.0490   -0.3420    1.8730 C   0  0
   -0.9280    0.6660    0.1870 C   0  0
   -1.1880   -1.7520    0.3610 C   0  0
    0.4880    0.5250    0.1250 C   0  0
    0.2150   -1.9080    0.3140 C   0  0
    1.0740   -0.7730    0.2250 C   0  0
    1.3750    1.7250   -0.0180 C   0  0  1  0  0  0
    2.5570   -0.8890    0.2270 C   0  0
    2.6820    1.4080   -0.5160 O   0  0
    0.8110    2.7720   -0.9200 C   0  0
    3.2990    0.2540   -0.1950 C   0  0
    3.2750   -2.0640    0.6170 C   0  0
    0.4100    4.0120   -0.3930 C   0  0
    0.6820    2.5180   -2.2970 C   0  0
    4.7090    0.1990   -0.2950 C   0  0
    2.6720   -3.1580    1.1000 O   0  0
    4.6860   -2.1000    0.5210 C   0  0
   -0.1210    4.9980   -1.2420 C   0  0
    0.1500    3.5040   -3.1470 C   0  0
    5.4020   -0.9760    0.0590 C   0  0
    3.3890   -4.3830    1.0720 C   0  0
   -0.2520    4.7440   -2.6190 C   0  0
   -3.5080    0.5900    0.3030 H   0  0
   -6.0350   -0.5780   -0.2830 H   0  0
   -6.3970   -2.0470    0.5780 H   0  0
   -7.1040   -0.0720    1.9370 H   0  0
   -5.7720   -0.9080    2.7620 H   0  0
   -5.4710    0.5820    1.8730 H   0  0
   -1.3710    1.6500    0.1440 H   0  0
   -1.8070   -2.6350    0.4390 H   0  0
    0.5800   -2.9200    0.3440 H   0  0
    1.5020    2.1620    0.9750 H   0  0
    0.5060    4.2130    0.6640 H   0  0
    0.9880    1.5680   -2.7070 H   0  0
    5.2600    1.0630   -0.6430 H   0  0
    5.2250   -2.9920    0.8050 H   0  0
   -0.4300    5.9510   -0.8380 H   0  0
    0.0510    3.3090   -4.2030 H   0  0
    6.4790   -1.0160   -0.0220 H   0  0
    2.8130   -5.2910    1.2480 H   0  0
    4.1740   -4.3360    1.8260 H   0  0
    3.8690   -4.4750    0.0980 H   0  0
   -0.6600    5.5020   -3.2720 H   0  0
  1  2  2  0
  1  3  2  0
  1  4  1  0
  1  5  1  0
  4  6  1  0
  5  7  1  0
  6  8  2  0
  6  9  1  0
  8 10  1  0
  9 11  2  0
 10 12  2  0
 10 13  1  0
 12 14  1  0
 13 15  1  0
 13 16  1  0
 14 17  2  0
 14 18  1  0
 16 19  2  0
 16 20  1  0
 17 21  1  0
 18 22  1  0
 18 23  2  0
 19 24  1  0
 20 25  2  0
 21 26  2  0
 22 27  1  0
 24 28  2  0
 11 12  1  0
 15 17  1  0
 23 26  1  0
 25 28  1  0
  4 29  1  0
  5 30  1  0
  5 31  1  0
  7 32  1  0
  7 33  1  0
  7 34  1  0
  8 35  1  0
  9 36  1  0
 11 37  1  0
 13 38  1  0
 19 39  1  0
 20 40  1  0
 21 41  1  0
 23 42  1  0
 24 43  1  0
 25 44  1  0
 26 45  1  0
 27 46  1  0
 27 47  1  0
 27 48  1  0
 28 49  1  0
M  END
> <Name>
CHEMBL65444

> <IC50 nM>
62

> <Molecule_ChEMBL_ID>
CHEMBL65444

> <Smiles>
CCS(=O)(=O)Nc1ccc2c(c1)C(c1ccccc1)Oc1cccc(OC)c1-2

$$$$
CHEMBL294112
  SciTegic08162514323D

 48 51  0  0  1  0            999 V2000
   -4.4610   -1.3930    0.5120 S   0  0
   -4.2770   -2.1780   -0.6970 O   0  0
   -4.0840   -2.1040    1.7210 O   0  0
   -3.5040   -0.0900    0.3950 N   0  0
   -6.1800   -0.9160    0.6350 C   0  0
   -2.1740   -0.2380    0.3150 C   0  0
   -1.3280    0.8910    0.2290 C   0  0
   -1.5990   -1.5290    0.3130 C   0  0
    0.0860    0.7440    0.1540 C   0  0
   -0.1970   -1.6910    0.2520 C   0  0
    0.6680   -0.5590    0.2270 C   0  0
    0.9850    1.9370    0.0220 C   0  0  1  0  0  0
    2.1540   -0.6720    0.2560 C   0  0
    2.2620    1.6030   -0.5410 O   0  0
    0.4100    3.0250   -0.8240 C   0  0
    2.8890    0.4590   -0.2090 C   0  0
    2.9010   -1.8150    0.7110 C   0  0
    0.0960    4.2720   -0.2520 C   0  0
    0.1800    2.8050   -2.1930 C   0  0
    4.2950    0.4080   -0.3460 C   0  0
    2.2480   -2.9810    1.3480 C   0  0
    4.3110   -1.8500    0.5760 C   0  0
   -0.4450    5.2950   -1.0490 C   0  0
   -0.3610    3.8280   -2.9900 C   0  0
    5.0040   -0.7480    0.0370 C   0  0
    1.3440   -2.9960    2.1520 O   0  0
    2.8400   -4.0720    0.8770 O   0  0
   -0.6740    5.0740   -2.4180 C   0  0
    2.2950   -5.2640    1.4260 C   0  0
   -3.9060    0.8260    0.3830 H   0  0
   -6.8710   -1.7540    0.7150 H   0  0
   -6.4590   -0.3360   -0.2440 H   0  0
   -6.3180   -0.2810    1.5100 H   0  0
   -1.7650    1.8790    0.2190 H   0  0
   -2.2240   -2.4120    0.3560 H   0  0
    0.1580   -2.7050    0.2190 H   0  0
    1.1560    2.3380    1.0240 H   0  0
    0.2700    4.4470    0.7990 H   0  0
    0.4180    1.8500   -2.6410 H   0  0
    4.8320    1.2600   -0.7380 H   0  0
    4.8690   -2.7210    0.8890 H   0  0
   -0.6850    6.2520   -0.6090 H   0  0
   -0.5370    3.6580   -4.0430 H   0  0
    6.0760   -0.7850   -0.0800 H   0  0
   -1.0900    5.8590   -3.0310 H   0  0
    2.7700   -6.1130    0.9400 H   0  0
    2.3910   -5.2130    2.5100 H   0  0
    1.2310   -5.2950    1.1880 H   0  0
  1  2  2  0
  1  3  2  0
  1  4  1  0
  1  5  1  0
  4  6  1  0
  6  7  2  0
  6  8  1  0
  7  9  1  0
  8 10  2  0
  9 11  2  0
  9 12  1  0
 11 13  1  0
 12 14  1  0
 12 15  1  0
 13 16  2  0
 13 17  1  0
 15 18  2  0
 15 19  1  0
 16 20  1  0
 17 21  1  0
 17 22  2  0
 18 23  1  0
 19 24  2  0
 20 25  2  0
 21 26  2  0
 21 27  1  0
 23 28  2  0
 27 29  1  0
 10 11  1  0
 14 16  1  0
 22 25  1  0
 24 28  1  0
  4 30  1  0
  5 31  1  0
  5 32  1  0
  5 33  1  0
  7 34  1  0
  8 35  1  0
 10 36  1  0
 12 37  1  0
 18 38  1  0
 19 39  1  0
 20 40  1  0
 22 41  1  0
 23 42  1  0
 24 43  1  0
 25 44  1  0
 28 45  1  0
 29 46  1  0
 29 47  1  0
 29 48  1  0
M  END
> <Name>
CHEMBL294112

> <IC50 nM>
1204

> <Molecule_ChEMBL_ID>
CHEMBL294112

> <Smiles>
COC(=O)c1cccc2c1-c1ccc(NS(C)(=O)=O)cc1C(c1ccccc1)O2

$$$$
CHEMBL232250
  SciTegic08162514323D

 40 42  0  0  1  0            999 V2000
    2.5700   -1.5630    6.2170 Cl  0  0
    1.8260   -1.9320    4.7070 C   0  0
    0.4670   -1.6370    4.4420 C   0  0
    2.6130   -2.5470    3.7130 C   0  0
   -0.5610   -0.8850    5.6040 Cl  0  0
   -0.0840   -1.9650    3.1880 C   0  0
    2.0590   -2.8690    2.4610 C   0  0
    0.7070   -2.5780    2.2030 C   0  0
    3.0390   -3.6170    1.2680 Cl  0  0
   -0.0120   -2.9610    0.6780 S   0  0
   -1.4280   -2.6480    0.7480 O   0  0
    0.2520   -4.3590    0.3890 O   0  0
    0.6110   -2.0640   -0.6780 N   0  0
    0.3910   -0.6290   -0.7050 C   0  0  2  0  0  0
    0.5660   -0.0880   -2.1250 C   0  0
    1.2950    0.0700    0.3090 C   0  0
    0.1350    1.3630   -2.2170 C   0  0
   -1.1250    1.8540   -2.2520 C   0  0
    0.9800    2.4860   -2.2810 C   0  0
   -1.1510    3.2230   -2.3360 C   0  0
   -2.3220    1.0980   -2.2110 C   0  0
    0.1700    3.6470   -2.3550 N   0  0
   -2.3670    3.9400   -2.3870 C   0  0
   -3.5610    1.7910   -2.2600 C   0  0
   -3.5840    3.2090   -2.3460 C   0  0
    3.6500   -2.7730    3.9120 H   0  0
   -1.1190   -1.7480    2.9690 H   0  0
    1.6230   -2.2380   -0.7670 H   0  0
   -0.6520   -0.5700   -0.3960 H   0  0
   -0.0060   -0.6820   -2.8380 H   0  0
    1.6030   -0.1800   -2.4470 H   0  0
    1.0720   -0.2660    1.3220 H   0  0
    2.3440   -0.1270    0.0920 H   0  0
    1.1460    1.1500    0.2770 H   0  0
    2.0620    2.5040   -2.2770 H   0  0
   -2.3070    0.0200   -2.1460 H   0  0
    0.4900    4.5860   -2.4120 H   0  0
   -2.3770    5.0180   -2.4530 H   0  0
   -4.4880    1.2380   -2.2280 H   0  0
   -4.5280    3.7310   -2.3830 H   0  0
  1  2  1  0
  2  3  2  0
  2  4  1  0
  3  5  1  0
  3  6  1  0
  4  7  2  0
  6  8  2  0
  7  9  1  0
  8 10  1  0
 10 11  2  0
 10 12  2  0
 10 13  1  0
 13 14  1  0
 14 15  1  0
 14 16  1  0
 15 17  1  0
 17 18  1  0
 17 19  2  0
 18 20  1  0
 18 21  2  0
 19 22  1  0
 20 23  2  0
 21 24  1  0
 23 25  1  0
  7  8  1  0
 20 22  1  0
 24 25  2  0
  4 26  1  0
  6 27  1  0
 13 28  1  0
 14 29  1  0
 15 30  1  0
 15 31  1  0
 16 32  1  0
 16 33  1  0
 16 34  1  0
 19 35  1  0
 21 36  1  0
 22 37  1  0
 23 38  1  0
 24 39  1  0
 25 40  1  0
M  END
> <Name>
CHEMBL232250

> <IC50 nM>
990

> <Molecule_ChEMBL_ID>
CHEMBL232250

> <Smiles>
CC(Cc1c[nH]c2ccccc12)NS(=O)(=O)c1cc(Cl)c(Cl)cc1Cl

$$$$
CHEMBL233243
  SciTegic08162514323D

 40 42  0  0  1  0            999 V2000
    2.9960   -3.6040    1.2500 Cl  0  0
    2.0570   -2.8520    2.4840 C   0  0
    2.6090   -2.5180    3.7480 C   0  0
    0.6990   -2.5630    2.2250 C   0  0
    4.2540   -2.8360    4.1520 Cl  0  0
    1.7990   -1.9030    4.7230 C   0  0
   -0.0200   -2.9530    0.7010 S   0  0
   -0.0980   -1.9490    3.2030 C   0  0
    0.4510   -1.6190    4.4510 C   0  0
   -1.4360   -2.6450    0.7710 O   0  0
    0.2500   -4.3500    0.4120 O   0  0
    0.6000   -2.0570   -0.6560 N   0  0
    0.3730   -0.6210   -0.6860 C   0  0  2  0  0  0
    0.5470   -0.0800   -2.1060 C   0  0
    1.2770    0.0840    0.3280 C   0  0
    0.1150    1.3710   -2.1970 C   0  0
   -1.1450    1.8610   -2.2330 C   0  0
    0.9610    2.4940   -2.2620 C   0  0
   -1.1700    3.2300   -2.3180 C   0  0
   -2.3420    1.1050   -2.1930 C   0  0
    0.1500    3.6540   -2.3360 N   0  0
   -2.3870    3.9470   -2.3670 C   0  0
   -3.5800    1.7990   -2.2400 C   0  0
   -3.6040    3.2170   -2.3280 C   0  0
    2.2030   -1.6390    5.6890 H   0  0
   -1.1370   -1.7330    2.9980 H   0  0
   -0.1640   -1.1470    5.2030 H   0  0
    1.6110   -2.2250   -0.7480 H   0  0
   -0.6700   -0.5650   -0.3770 H   0  0
   -0.0270   -0.6740   -2.8170 H   0  0
    1.5820   -0.1720   -2.4300 H   0  0
    1.0610   -0.2580    1.3400 H   0  0
    2.3260   -0.1060    0.1030 H   0  0
    1.1190    1.1620    0.2990 H   0  0
    2.0430    2.5120   -2.2580 H   0  0
   -2.3260    0.0270   -2.1270 H   0  0
    0.4710    4.5940   -2.3930 H   0  0
   -2.3970    5.0250   -2.4340 H   0  0
   -4.5080    1.2460   -2.2110 H   0  0
   -4.5470    3.7380   -2.3630 H   0  0
  1  2  1  0
  2  3  2  0
  2  4  1  0
  3  5  1  0
  3  6  1  0
  4  7  1  0
  4  8  2  0
  6  9  2  0
  7 10  2  0
  7 11  2  0
  7 12  1  0
 12 13  1  0
 13 14  1  0
 13 15  1  0
 14 16  1  0
 16 17  1  0
 16 18  2  0
 17 19  1  0
 17 20  2  0
 18 21  1  0
 19 22  2  0
 20 23  1  0
 22 24  1  0
  8  9  1  0
 19 21  1  0
 23 24  2  0
  6 25  1  0
  8 26  1  0
  9 27  1  0
 12 28  1  0
 13 29  1  0
 14 30  1  0
 14 31  1  0
 15 32  1  0
 15 33  1  0
 15 34  1  0
 18 35  1  0
 20 36  1  0
 21 37  1  0
 22 38  1  0
 23 39  1  0
 24 40  1  0
M  END
> <Name>
CHEMBL233243

> <IC50 nM>
1200

> <Molecule_ChEMBL_ID>
CHEMBL233243

> <Smiles>
CC(Cc1c[nH]c2ccccc12)NS(=O)(=O)c1cccc(Cl)c1Cl

$$$$
CHEMBL371988
  SciTegic08162514323D

 52 56  0  0  1  0            999 V2000
   -4.6330    6.0120   -2.7890 F   0  0
   -4.2520    4.8970   -2.1700 C   0  0
   -3.1720    4.1480   -2.6700 C   0  0
   -4.9280    4.4690   -1.0160 C   0  0
   -2.7700    2.9710   -2.0180 C   0  0
   -4.5250    3.2910   -0.3590 C   0  0
   -3.4450    2.5390   -0.8590 C   0  0
   -3.0570    1.4020   -0.2260 N   0  0
   -3.9040    0.4450    0.2380 N   0  0
   -1.7730    1.0410    0.0370 C   0  0
   -3.2620   -0.5940    0.8400 C   0  0
   -1.9430   -0.1660    0.6930 C   0  0
   -0.4670    1.6680   -0.2360 C   0  0
   -0.6950   -0.8850    1.1970 C   0  0
    0.6480    0.9320   -0.0180 C   0  0
    0.5660   -0.5660    0.3220 C   0  0  1  0  0  0
    2.0220    1.5550   -0.0940 C   0  0
    1.8830   -1.0200    1.0550 C   0  0
    0.4000   -1.3010   -1.0230 C   0  0
    2.7970    1.3630    1.2250 C   0  0
    1.7070   -2.2210    1.7830 O   0  0
    2.9080   -1.3890    0.1350 O   0  0
    2.4320    0.0700    1.9920 C   0  0
    1.9300   -3.3260    0.9430 C   0  0  1  0  0  0
    3.0650   -2.7950    0.0720 C   0  0  1  0  0  0
    2.2790   -4.5450    1.7850 C   0  0
    2.9860   -3.2460   -1.3810 C   0  0
   -2.6500    4.4750   -3.5590 H   0  0
   -5.7580    5.0410   -0.6270 H   0  0
   -1.9370    2.4080   -2.4180 H   0  0
   -5.0590    2.9790    0.5270 H   0  0
   -3.6990   -1.4770    1.2890 H   0  0
   -0.4040    2.6860   -0.5900 H   0  0
   -0.8850   -1.9590    1.2340 H   0  0
   -0.5270   -0.5630    2.2270 H   0  0
    2.5660    1.0860   -0.9140 H   0  0
    1.9610    2.6150   -0.3380 H   0  0
    1.3030   -1.2480   -1.6290 H   0  0
   -0.4160   -0.8670   -1.6020 H   0  0
    0.1680   -2.3540   -0.8610 H   0  0
    3.8630    1.3690    1.0040 H   0  0
    2.6250    2.2190    1.8790 H   0  0
    3.3050   -0.2810    2.5470 H   0  0
    1.6760    0.3070    2.7440 H   0  0
    1.0310   -3.4980    0.3670 H   0  0
    4.0290   -3.0310    0.4980 H   0  0
    1.4590   -4.8340    2.4430 H   0  0
    3.1500   -4.3440    2.4100 H   0  0
    2.5140   -5.3990    1.1500 H   0  0
    3.5470   -2.5680   -2.0250 H   0  0
    3.3870   -4.2540   -1.4940 H   0  0
    1.9530   -3.2560   -1.7270 H   0  0
  1  2  1  0
  2  3  2  0
  2  4  1  0
  3  5  1  0
  4  6  2  0
  5  7  2  0
  7  8  1  0
  8  9  1  0
  8 10  1  0
  9 11  2  0
 10 12  2  0
 10 13  1  0
 12 14  1  0
 13 15  2  0
 14 16  1  0
 15 17  1  0
 16 18  1  0
 16 19  1  0
 17 20  1  0
 18 21  1  0
 18 22  1  0
 18 23  1  0
 21 24  1  0
 22 25  1  0
 24 26  1  0
 25 27  1  0
  6  7  1  0
 11 12  1  0
 15 16  1  0
 20 23  1  0
 24 25  1  0
  3 28  1  0
  4 29  1  0
  5 30  1  0
  6 31  1  0
 11 32  1  0
 13 33  1  0
 14 34  1  0
 14 35  1  0
 17 36  1  0
 17 37  1  0
 19 38  1  0
 19 39  1  0
 19 40  1  0
 20 41  1  0
 20 42  1  0
 23 43  1  0
 23 44  1  0
 24 45  1  0
 25 46  1  0
 26 47  1  0
 26 48  1  0
 26 49  1  0
 27 50  1  0
 27 51  1  0
 27 52  1  0
M  END
> <Name>
CHEMBL371988

> <IC50 nM>
10

> <Molecule_ChEMBL_ID>
CHEMBL371988

> <Smiles>
C[C@H]1OC2(CCCC3=Cc4c(cnn4-c4ccc(F)cc4)C[C@@]32C)O[C@@H]1C

$$$$
CHEMBL4777937
  SciTegic08162514323D

 72 75  0  0  1  0            999 V2000
  -10.5920    1.1190    1.9280 F   0  0
   -9.6410    1.0550    0.9430 C   0  0
  -10.1740    0.4550   -0.1680 F   0  0
   -9.2270    2.3220    0.6250 F   0  0
   -8.4920    0.2440    1.4810 C   0  0
   -8.5220   -0.2150    2.5980 O   0  0
   -7.4060    0.0350    0.6780 N   0  0
   -6.2760   -0.7540    1.1860 C   0  0  2  0  0  0
   -4.9750   -0.3650    0.4790 C   0  0  2  0  0  0
   -6.5690   -2.2520    1.0980 C   0  0
   -3.9220   -1.2050    0.9320 O   0  0
   -4.6190    1.0550    0.7310 C   0  0
   -2.7070   -0.9710    0.4810 C   0  0
   -4.7250    2.0020   -0.3030 C   0  0
   -4.1760    1.4550    2.0040 C   0  0
   -1.5800   -1.3810    1.2190 C   0  0
   -2.5180   -0.3070   -0.7440 C   0  0
   -4.3870    3.3460   -0.0660 C   0  0
   -3.8400    2.7990    2.2420 C   0  0
   -0.3110   -1.1480    0.7720 N   0  0
   -1.2090   -0.0700   -1.1970 C   0  0
   -3.9440    3.7460    1.2070 C   0  0
   -0.1170   -0.5040   -0.4160 C   0  0
   -3.5880    5.1660    1.4590 C   0  0
    1.2750   -0.2580   -0.8910 C   0  0
    1.4860    0.3110   -1.9350 O   0  0
    2.3160   -0.6860   -0.1170 N   0  0
    3.7010   -0.4510   -0.5700 C   0  0  2  0  0  0
    4.6820   -1.4160    0.1310 C   0  0
    4.1070    1.0200   -0.3550 C   0  0
    6.0880   -1.1090   -0.2280 N   0  0
    5.5510    1.2520   -0.8240 C   0  0
    6.9430   -2.1000   -0.6350 C   0  0
    6.5410    0.2990   -0.1350 C   0  0
    6.5570   -3.2400   -0.7250 O   0  0
    8.3690   -1.7320   -0.9650 C   0  0  2  0  0  0
    8.3850   -0.9730   -2.1720 O   0  0
    9.2540   -2.9630   -1.2110 C   0  0
    8.6970   -1.7950   -3.1660 C   0  0
    9.0390   -3.1800   -2.7030 C   0  0
    8.7230   -1.4840   -4.3340 O   0  0
   -7.3830    0.4160   -0.2460 H   0  0
   -6.1880   -0.6050    2.2620 H   0  0
   -5.1020   -0.5250   -0.5920 H   0  0
   -7.4830   -2.4960    1.6390 H   0  0
   -6.6760   -2.5640    0.0610 H   0  0
   -5.7560   -2.8300    1.5390 H   0  0
   -5.0630    1.7010   -1.2830 H   0  0
   -4.0940    0.7340    2.8030 H   0  0
   -1.7170   -1.8910    2.1600 H   0  0
   -3.3650    0.0200   -1.3300 H   0  0
   -4.4710    4.0660   -0.8650 H   0  0
   -3.5000    3.1000    3.2230 H   0  0
   -1.0470    0.4390   -2.1370 H   0  0
   -3.2560    5.3730    2.4770 H   0  0
   -4.4510    5.7990    1.2560 H   0  0
   -2.7890    5.4670    0.7810 H   0  0
    2.1350   -1.1540    0.7480 H   0  0
    3.7210   -0.6540   -1.6420 H   0  0
    4.5900   -1.3320    1.2150 H   0  0
    4.4450   -2.4510   -0.1270 H   0  0
    3.4360    1.6880   -0.8960 H   0  0
    4.0270    1.2810    0.7010 H   0  0
    5.8400    2.2870   -0.6370 H   0  0
    5.6040    1.1130   -1.9040 H   0  0
    6.6310    0.5590    0.9200 H   0  0
    7.5350    0.4100   -0.5720 H   0  0
    8.7640   -1.1210   -0.1660 H   0  0
    8.9920   -3.8240   -0.6110 H   0  0
   10.2890   -2.7210   -1.0160 H   0  0
    9.9220   -3.5610   -3.1990 H   0  0
    8.2110   -3.8460   -2.8940 H   0  0
  1  2  1  0
  2  3  1  0
  2  4  1  0
  2  5  1  0
  5  6  2  0
  5  7  1  0
  7  8  1  0
  8  9  1  0
  8 10  1  0
  9 11  1  0
  9 12  1  0
 11 13  1  0
 12 14  2  0
 12 15  1  0
 13 16  2  0
 13 17  1  0
 14 18  1  0
 15 19  2  0
 16 20  1  0
 17 21  2  0
 18 22  2  0
 20 23  2  0
 22 24  1  0
 23 25  1  0
 25 26  2  0
 25 27  1  0
 28 27  1  0
 28 29  1  0
 28 30  1  0
 29 31  1  0
 30 32  1  0
 31 33  1  0
 31 34  1  0
 33 35  2  0
 36 33  1  0
 36 37  1  0
 36 38  1  0
 37 39  1  0
 38 40  1  0
 39 41  2  0
 19 22  1  0
 21 23  1  0
 32 34  1  0
 39 40  1  0
  7 42  1  0
  8 43  1  0
  9 44  1  0
 10 45  1  0
 10 46  1  0
 10 47  1  0
 14 48  1  0
 15 49  1  0
 16 50  1  0
 17 51  1  0
 18 52  1  0
 19 53  1  0
 21 54  1  0
 24 55  1  0
 24 56  1  0
 24 57  1  0
 27 58  1  0
 28 59  1  0
 29 60  1  0
 29 61  1  0
 30 62  1  0
 30 63  1  0
 32 64  1  0
 32 65  1  0
 34 66  1  0
 34 67  1  0
 36 68  1  0
 38 69  1  0
 38 70  1  0
 40 71  1  0
 40 72  1  0
M  END
> <Name>
CHEMBL4777937

> <IC50 nM>
7

> <Molecule_ChEMBL_ID>
CHEMBL4777937

> <Smiles>
Cc1ccc([C@@H](Oc2ccc(C(=O)N[C@H]3CCCN(C(=O)[C@H]4CCC(=O)O4)C3)nc2)[C@H](C)NC(=O)C(F)(F)F)cc1

$$$$
CHEMBL219068
  SciTegic08162514323D

 53 55  0  0  1  0            999 V2000
   -3.0740    5.3500   -2.1100 F   0  0
   -2.0410    4.7700   -1.5040 C   0  0
   -2.1860    3.4960   -0.9280 C   0  0
   -0.8030    5.4300   -1.4420 C   0  0
   -1.0940    2.8830   -0.2870 C   0  0
    0.2890    4.8180   -0.8030 C   0  0
    0.1480    3.5450   -0.2230 C   0  0
   -1.2600    1.5350    0.3200 C   0  0
    1.1800    2.9800    0.3730 O   0  0
   -0.5640    0.8070   -0.8320 C   0  0
   -2.7340    1.1540    0.4530 C   0  0
   -0.4960    1.4140    1.6390 C   0  0
    2.4490    3.6020    0.2400 C   0  0
   -0.7420   -0.7110   -0.7640 C   0  0  1  0  0  0
   -2.0680   -1.0160   -1.1270 O   0  0
    0.1930   -1.3070   -1.8170 C   0  0
   -0.4880   -1.2720    0.6370 C   0  0
    0.0200   -0.6500   -3.0060 F   0  0
   -0.0940   -2.6370   -1.9810 F   0  0
    1.4940   -1.1680   -1.4020 F   0  0
   -0.3070   -2.7360    0.5960 N   0  0
    0.9380   -3.2990    0.6720 C   0  0
   -1.4510   -3.5220    0.4750 C   0  0
    1.0330   -4.7210    0.6270 C   0  0
    2.1290   -2.5290    0.7950 C   0  0
   -1.4040   -4.8170    0.4300 N   0  0
   -0.2210   -5.5290    0.4960 C   0  0
    2.2970   -5.3590    0.7030 C   0  0
    3.3870   -3.1720    0.8710 C   0  0
   -0.2950   -6.7350    0.4450 O   0  0
    3.4710   -4.5840    0.8260 C   0  0
   -3.1390    2.9880   -0.9770 H   0  0
   -0.6860    6.4100   -1.8830 H   0  0
    1.2380    5.3300   -0.7560 H   0  0
    0.4920    1.0700   -0.8730 H   0  0
   -0.9060    1.1910   -1.7930 H   0  0
   -3.3090    1.9300    0.9630 H   0  0
   -2.8440    0.2300    1.0210 H   0  0
   -3.1820    1.0000   -0.5270 H   0  0
   -0.4980    2.3520    2.1970 H   0  0
    0.5430    1.1370    1.4610 H   0  0
   -0.9430    0.6480    2.2730 H   0  0
    3.1840    2.9920    0.7690 H   0  0
    2.6370    3.7720   -0.8180 H   0  0
    2.4060    4.5720    0.7320 H   0  0
   -2.5510   -1.2210   -0.3110 H   0  0
   -1.3160   -1.0310    1.3030 H   0  0
    0.3950   -0.8130    1.0820 H   0  0
   -2.4180   -3.0390    0.4160 H   0  0
    2.0980   -1.4510    0.8320 H   0  0
    2.3710   -6.4380    0.6700 H   0  0
    4.2870   -2.5820    0.9630 H   0  0
    4.4340   -5.0680    0.8850 H   0  0
  1  2  1  0
  2  3  2  0
  2  4  1  0
  3  5  1  0
  4  6  2  0
  5  7  2  0
  5  8  1  0
  7  9  1  0
  8 10  1  0
  8 11  1  0
  8 12  1  0
  9 13  1  0
 10 14  1  0
 14 15  1  0
 14 16  1  0
 14 17  1  0
 16 18  1  0
 16 19  1  0
 16 20  1  0
 17 21  1  0
 21 22  1  0
 21 23  1  0
 22 24  2  0
 22 25  1  0
 23 26  2  0
 24 27  1  0
 24 28  1  0
 25 29  2  0
 27 30  2  0
 28 31  2  0
  6  7  1  0
 26 27  1  0
 29 31  1  0
  3 32  1  0
  4 33  1  0
  6 34  1  0
 10 35  1  0
 10 36  1  0
 11 37  1  0
 11 38  1  0
 11 39  1  0
 12 40  1  0
 12 41  1  0
 12 42  1  0
 13 43  1  0
 13 44  1  0
 13 45  1  0
 15 46  1  0
 17 47  1  0
 17 48  1  0
 23 49  1  0
 25 50  1  0
 28 51  1  0
 29 52  1  0
 31 53  1  0
M  END
> <Name>
CHEMBL219068

> <IC50 nM>
690

> <Molecule_ChEMBL_ID>
CHEMBL219068

> <Smiles>
COc1ccc(F)cc1C(C)(C)CC(O)(Cn1cnc(=O)c2ccccc21)C(F)(F)F

$$$$
CHEMBL382102
  SciTegic08162514323D

 54 58  0  0  1  0            999 V2000
   -5.9880   -4.0880   -4.0060 F   0  0
   -5.3530   -3.1780   -3.2680 C   0  0
   -5.4340   -1.8160   -3.6080 C   0  0
   -4.6020   -3.5800   -2.1500 C   0  0
   -4.7640   -0.8570   -2.8280 C   0  0
   -3.9320   -2.6230   -1.3710 C   0  0
   -4.0100   -1.2580   -1.7090 C   0  0
   -3.3630   -0.3300   -0.9550 N   0  0
   -3.9120    0.8380   -0.5270 N   0  0
   -2.0820   -0.4240   -0.5120 C   0  0
   -3.0510    1.5940    0.2050 C   0  0
   -1.9300    0.7700    0.1740 C   0  0
   -1.0450   -1.4630   -0.6520 C   0  0
   -0.5780    1.0900    0.7950 C   0  0
    0.1000   -1.3480    0.0590 C   0  0
    0.3380   -0.1720    1.0230 C   0  0  1  0  0  0
    1.1600   -2.4280   -0.0570 C   0  0
    1.8420    0.2500    1.0490 C   0  0
    0.0160   -0.7540    2.4100 C   0  0
    2.6040   -1.9200    0.0390 C   0  0
    2.1880    0.9710   -0.1270 O   0  0
    2.1040    1.1760    2.0980 O   0  0
    2.8030   -0.9450    1.2090 C   0  0
    3.0690    2.0310    0.1720 C   0  0  1  0  0  0
    2.6680    2.3770    1.6050 C   0  0  1  0  0  0
    4.5000    1.5800    0.0230 C   0  0
    1.6370    3.4770    1.6950 C   0  0
    5.2370    2.0980   -0.9730 C   0  0
    1.9770    4.6270    2.2970 C   0  0
   -6.0100   -1.5040   -4.4650 H   0  0
   -4.5370   -4.6270   -1.8870 H   0  0
   -4.8380    0.1860   -3.1060 H   0  0
   -3.3570   -2.9510   -0.5140 H   0  0
   -3.2340    2.5590    0.6580 H   0  0
   -1.2070   -2.3070   -1.3050 H   0  0
   -0.7260    1.6290    1.7320 H   0  0
   -0.1150    1.8030    0.1150 H   0  0
    0.9880   -3.1500    0.7420 H   0  0
    1.0390   -2.9790   -0.9900 H   0  0
   -1.0410   -1.0140    2.4840 H   0  0
    0.6150   -1.6430    2.6050 H   0  0
    0.2340   -0.0270    3.1930 H   0  0
    3.2790   -2.7680    0.1480 H   0  0
    2.8810   -1.4380   -0.8980 H   0  0
    3.8460   -0.6350    1.2520 H   0  0
    2.6100   -1.4650    2.1480 H   0  0
    2.8870    2.8400   -0.5230 H   0  0
    3.5160    2.6430    2.2230 H   0  0
    5.0120    0.8650    0.6520 H   0  0
    0.6270    3.4320    1.3140 H   0  0
    6.2700    1.8770   -1.2010 H   0  0
    4.7270    2.8130   -1.6020 H   0  0
    1.3500    5.4960    2.4380 H   0  0
    2.9860    4.6720    2.6740 H   0  0
  1  2  1  0
  2  3  2  0
  2  4  1  0
  3  5  1  0
  4  6  2  0
  5  7  2  0
  7  8  1  0
  8  9  1  0
  8 10  1  0
  9 11  2  0
 10 12  2  0
 10 13  1  0
 12 14  1  0
 13 15  2  0
 14 16  1  0
 15 17  1  0
 16 18  1  0
 16 19  1  0
 17 20  1  0
 18 21  1  0
 18 22  1  0
 18 23  1  0
 21 24  1  0
 22 25  1  0
 24 26  1  0
 25 27  1  0
 26 28  2  0
 27 29  2  0
  6  7  1  0
 11 12  1  0
 15 16  1  0
 20 23  1  0
 24 25  1  0
  3 30  1  0
  4 31  1  0
  5 32  1  0
  6 33  1  0
 11 34  1  0
 13 35  1  0
 14 36  1  0
 14 37  1  0
 17 38  1  0
 17 39  1  0
 19 40  1  0
 19 41  1  0
 19 42  1  0
 20 43  1  0
 20 44  1  0
 23 45  1  0
 23 46  1  0
 24 47  1  0
 25 48  1  0
 26 49  1  0
 27 50  1  0
 28 51  1  0
 28 52  1  0
 29 53  1  0
 29 54  1  0
M  END
> <Name>
CHEMBL382102

> <IC50 nM>
1.2

> <Molecule_ChEMBL_ID>
CHEMBL382102

> <Smiles>
C=C[C@H]1OC2(CCCC3=Cc4c(cnn4-c4ccc(F)cc4)C[C@@]32C)O[C@@H]1C=C

$$$$
CHEMBL2419301
  SciTegic08162514323D

 43 46  0  0  1  0            999 V2000
   -1.1740   -3.9920   -3.9000 F   0  0
   -0.4800   -3.4490   -2.9020 C   0  0
   -0.3520   -2.0510   -2.8150 C   0  0
    0.1250   -4.2720   -1.9360 C   0  0
    0.3810   -1.4790   -1.7600 C   0  0
    0.8570   -3.6990   -0.8830 C   0  0
    0.9860   -2.3010   -0.7930 C   0  0
    1.7660   -1.6890    0.3280 C   0  0
    2.9470   -2.2890    0.9360 C   0  0
    1.4980   -0.5230    0.9370 C   0  0
    3.4790   -3.3380    0.6480 O   0  0
    3.4000   -1.4300    1.9470 N   0  0
    0.3730    0.3830    0.6210 C   0  0
    2.5270   -0.2500    2.0160 C   0  0  1  0  0  0
   -0.9550   -0.1000    0.6820 C   0  0
    0.6330    1.7250    0.2580 C   0  0
    3.3010    1.0430    1.7770 C   0  0
   -2.0410    0.7660    0.3830 C   0  0
   -0.4430    2.5940   -0.0370 C   0  0
   -3.3160    0.3110    0.4180 N   0  0
   -1.7770    2.1230    0.0310 C   0  0
   -0.1660    3.9900   -0.4180 C   0  0
   -4.3890    1.1640    0.2870 C   0  0
   -2.7950    2.9670   -0.2480 O   0  0
   -5.5180    0.7320    0.2850 O   0  0
   -4.1330    2.6540    0.1560 C   0  0
   -0.8160   -1.4160   -3.5530 H   0  0
    0.0290   -5.3460   -2.0000 H   0  0
    0.4730   -0.4020   -1.6990 H   0  0
    1.3180   -4.3400   -0.1450 H   0  0
    4.1950   -1.5940    2.5310 H   0  0
    2.0450   -0.2210    2.9820 H   0  0
   -1.1350   -1.1310    0.9570 H   0  0
    1.6480    2.0880    0.2070 H   0  0
    4.1970    1.0740    2.3960 H   0  0
    3.5880    1.1310    0.7300 H   0  0
    2.6890    1.9080    2.0310 H   0  0
   -3.4960   -0.6680    0.5350 H   0  0
    0.8950    4.2460   -0.4400 H   0  0
   -0.6560    4.6620    0.2870 H   0  0
   -0.5780    4.1860   -1.4080 H   0  0
   -4.8240    3.1060   -0.5570 H   0  0
   -4.3070    3.1270    1.1250 H   0  0
  1  2  1  0
  2  3  2  0
  2  4  1  0
  3  5  1  0
  4  6  2  0
  5  7  2  0
  7  8  1  0
  8  9  1  0
  8 10  2  0
  9 11  2  0
  9 12  1  0
 10 13  1  0
 10 14  1  0
 13 15  2  0
 13 16  1  0
 14 17  1  0
 15 18  1  0
 16 19  2  0
 18 20  1  0
 18 21  2  0
 19 22  1  0
 20 23  1  0
 21 24  1  0
 23 25  2  0
 23 26  1  0
  6  7  1  0
 12 14  1  0
 19 21  1  0
 24 26  1  0
  3 27  1  0
  4 28  1  0
  5 29  1  0
  6 30  1  0
 12 31  1  0
 14 32  1  0
 15 33  1  0
 16 34  1  0
 17 35  1  0
 17 36  1  0
 17 37  1  0
 20 38  1  0
 22 39  1  0
 22 40  1  0
 22 41  1  0
 26 42  1  0
 26 43  1  0
M  END
> <Name>
CHEMBL2419301

> <IC50 nM>
4900

> <Molecule_ChEMBL_ID>
CHEMBL2419301

> <Smiles>
Cc1cc(C2=C(c3ccc(F)cc3)C(=O)NC2C)cc2c1OCC(=O)N2

$$$$
CHEMBL2419297
  SciTegic08162514323D

 47 50  0  0  1  0            999 V2000
   -1.5180   -2.5330   -5.0390 F   0  0
   -0.8770   -2.0880   -3.9610 C   0  0
   -1.2110   -0.8400   -3.4080 C   0  0
    0.1350   -2.8670   -3.3730 C   0  0
   -0.5350   -0.3710   -2.2680 C   0  0
    0.8130   -2.3980   -2.2350 C   0  0
    0.4790   -1.1500   -1.6800 C   0  0
    1.1970   -0.6500   -0.4670 C   0  0
    2.6090   -0.8940   -0.1900 C   0  0
    0.6620    0.0800    0.5270 C   0  0
    3.4100   -1.5120   -0.8520 O   0  0
    2.8930   -0.2660    1.0270 N   0  0
   -0.7460    0.5200    0.6130 C   0  0
    1.7090    0.4040    1.5760 C   0  0  1  0  0  0
    4.1950   -0.2640    1.6890 C   0  0
   -1.7830   -0.4410    0.6210 C   0  0
   -1.0490    1.8990    0.6870 C   0  0
    1.9220    1.9040    1.7520 C   0  0
    5.2270    0.5800    0.9390 C   0  0
   -3.1390   -0.0250    0.7030 C   0  0
   -2.3960    2.3200    0.7660 C   0  0
    6.4380    0.5390    1.6600 O   0  0
   -4.1390   -0.9370    0.7300 N   0  0
   -3.4410    1.3670    0.7670 C   0  0
   -5.4610   -0.5590    0.6720 C   0  0
   -4.7210    1.7930    0.8460 O   0  0
   -6.3380   -1.3890    0.7300 O   0  0
   -5.8050    0.9120    0.5210 C   0  0
   -1.9880   -0.2380   -3.8560 H   0  0
    0.3950   -3.8280   -3.7930 H   0  0
   -0.7990    0.5900   -1.8520 H   0  0
    1.5880   -3.0040   -1.7890 H   0  0
    1.4410   -0.0530    2.5170 H   0  0
    4.5470   -1.2890    1.8030 H   0  0
    4.0820    0.0880    2.7150 H   0  0
   -1.5370   -1.4940    0.5680 H   0  0
   -0.2600    2.6370    0.6830 H   0  0
    2.8110    2.1000    2.3510 H   0  0
    2.0330    2.3930    0.7830 H   0  0
    1.0720    2.3580    2.2600 H   0  0
    4.9020    1.6190    0.8790 H   0  0
    5.4080    0.1720   -0.0550 H   0  0
   -2.6270    3.3750    0.8240 H   0  0
    7.0780    1.0780    1.1720 H   0  0
   -3.9280   -1.9140    0.8010 H   0  0
   -6.0920    1.1020   -0.5140 H   0  0
   -6.6580    1.1740    1.1460 H   0  0
  1  2  1  0
  2  3  2  0
  2  4  1  0
  3  5  1  0
  4  6  2  0
  5  7  2  0
  7  8  1  0
  8  9  1  0
  8 10  2  0
  9 11  2  0
  9 12  1  0
 10 13  1  0
 10 14  1  0
 12 15  1  0
 13 16  2  0
 13 17  1  0
 14 18  1  0
 15 19  1  0
 16 20  1  0
 17 21  2  0
 19 22  1  0
 20 23  1  0
 20 24  2  0
 23 25  1  0
 24 26  1  0
 25 27  2  0
 25 28  1  0
  6  7  1  0
 12 14  1  0
 21 24  1  0
 26 28  1  0
  3 29  1  0
  4 30  1  0
  5 31  1  0
  6 32  1  0
 14 33  1  0
 15 34  1  0
 15 35  1  0
 16 36  1  0
 17 37  1  0
 18 38  1  0
 18 39  1  0
 18 40  1  0
 19 41  1  0
 19 42  1  0
 21 43  1  0
 22 44  1  0
 23 45  1  0
 28 46  1  0
 28 47  1  0
M  END
> <Name>
CHEMBL2419297

> <IC50 nM>
10000

> <Molecule_ChEMBL_ID>
CHEMBL2419297

> <Smiles>
CC1C(c2ccc3c(c2)NC(=O)CO3)=C(c2ccc(F)cc2)C(=O)N1CCO

$$$$
CHEMBL3358928
  SciTegic08162514323D

 60 62  0  0  1  0            999 V2000
   -0.4280   -4.3650   -3.5800 F   0  0
   -0.5740   -3.0640   -3.3400 C   0  0
   -1.6800   -2.6040   -2.6020 C   0  0
    0.3770   -2.1480   -3.8240 C   0  0
   -1.8360   -1.2290   -2.3480 C   0  0
    0.2230   -0.7750   -3.5720 C   0  0
   -0.8830   -0.3130   -2.8360 C   0  0
   -3.0120   -0.7600   -1.5660 C   0  0
   -1.0290    1.1470   -2.5760 C   0  0
   -2.2210   -0.5800   -0.2700 C   0  0
   -4.0840   -1.8440   -1.4570 C   0  0
   -3.5610    0.5590   -2.1110 C   0  0
   -3.0760   -0.0330    0.8730 C   0  0  1  0  0  0
   -4.3340    0.3300    0.3480 O   0  0
   -3.2990   -1.0590    1.9840 C   0  0
   -2.4590    1.2010    1.5330 C   0  0
   -4.4430   -0.7460    2.6720 F   0  0
   -2.2320   -1.0390    2.8440 F   0  0
   -3.4220   -2.3090    1.4360 F   0  0
   -0.9510    1.0920    1.6000 C   0  0
   -0.0940    2.2190    1.6740 N   0  0
   -0.1580   -0.0740    1.5980 C   0  0
    1.1990    1.7270    1.7190 C   0  0
    1.1190    0.3590    1.6700 C   0  0
    2.4750    2.3240    1.8010 C   0  0
    2.2930   -0.4450    1.6970 C   0  0
    3.6500    1.6050    1.8320 N   0  0
    3.5550    0.2170    1.7790 C   0  0
    4.6780   -0.5140    1.8090 O   0  0
    5.9140    0.1680    1.9630 C   0  0
    6.1410    1.0880    0.7640 C   0  0
    5.9180    0.9200    3.2930 C   0  0
   -2.4080   -3.3090   -2.2310 H   0  0
    1.2270   -2.4980   -4.3930 H   0  0
    0.9570   -0.0780   -3.9470 H   0  0
   -1.3440    1.3930   -1.5630 H   0  0
   -1.7680    1.5630   -3.2640 H   0  0
   -0.0800    1.6470   -2.7640 H   0  0
   -1.7400   -1.5140    0.0210 H   0  0
   -1.3500    0.0550   -0.4360 H   0  0
   -3.7750   -2.6540   -0.7950 H   0  0
   -4.2970   -2.2750   -2.4340 H   0  0
   -5.0140   -1.4300   -1.0650 H   0  0
   -3.1310    1.4200   -1.5980 H   0  0
   -4.6430    0.6050   -1.9900 H   0  0
   -3.3380    0.6600   -3.1740 H   0  0
   -4.3750    1.2990    0.3500 H   0  0
   -2.7360    2.1060    0.9920 H   0  0
   -2.8570    1.3380    2.5390 H   0  0
   -0.3650    3.1740    1.6910 H   0  0
   -0.5060   -1.0980    1.5470 H   0  0
    2.5350    3.4000    1.8400 H   0  0
    2.2360   -1.5230    1.6560 H   0  0
    6.6470   -0.6390    1.9750 H   0  0
    5.9320    2.1310    1.0060 H   0  0
    5.4960    0.8050   -0.0680 H   0  0
    7.1740    1.0270    0.4200 H   0  0
    5.1600    0.5200    3.9650 H   0  0
    6.8950    0.8460    3.7750 H   0  0
    5.7010    1.9770    3.1390 H   0  0
  1  2  1  0
  2  3  2  0
  2  4  1  0
  3  5  1  0
  4  6  2  0
  5  7  2  0
  5  8  1  0
  7  9  1  0
  8 10  1  0
  8 11  1  0
  8 12  1  0
 10 13  1  0
 13 14  1  0
 13 15  1  0
 13 16  1  0
 15 17  1  0
 15 18  1  0
 15 19  1  0
 16 20  1  0
 20 21  1  0
 20 22  2  0
 21 23  1  0
 22 24  1  0
 23 25  1  0
 24 26  1  0
 25 27  2  0
 26 28  2  0
 28 29  1  0
 29 30  1  0
 30 31  1  0
 30 32  1  0
  6  7  1  0
 23 24  2  0
 27 28  1  0
  3 33  1  0
  4 34  1  0
  6 35  1  0
  9 36  1  0
  9 37  1  0
  9 38  1  0
 10 39  1  0
 10 40  1  0
 11 41  1  0
 11 42  1  0
 11 43  1  0
 12 44  1  0
 12 45  1  0
 12 46  1  0
 14 47  1  0
 16 48  1  0
 16 49  1  0
 21 50  1  0
 22 51  1  0
 25 52  1  0
 26 53  1  0
 30 54  1  0
 31 55  1  0
 31 56  1  0
 31 57  1  0
 32 58  1  0
 32 59  1  0
 32 60  1  0
M  END
> <Name>
CHEMBL3358928

> <IC50 nM>
3

> <Molecule_ChEMBL_ID>
CHEMBL3358928

> <Smiles>
Cc1ccc(F)cc1C(C)(C)CC(O)(Cc1cc2cc(OC(C)C)ncc2[nH]1)C(F)(F)F

$$$$
CHEMBL3358942
  SciTegic08162514323D

 57 59  0  0  1  0            999 V2000
    6.4750   -2.6060    1.8850 S   0  0
    6.5550   -3.3690    0.6520 O   0  0
    6.4470   -3.4380    3.0740 O   0  0
    5.0390   -1.6740    1.8480 C   0  0
    7.8850   -1.5100    1.9790 C   0  0
    5.1330   -0.2870    1.8980 N   0  0
    3.7790   -2.3400    1.7660 C   0  0
    3.9530    0.4300    1.8670 C   0  0
    2.6020   -1.5390    1.7380 C   0  0
    2.6820   -0.1700    1.7870 C   0  0
    1.3260   -1.9770    1.6640 C   0  0
    1.3870    0.3160    1.7420 N   0  0
    0.5310   -0.8130    1.6660 C   0  0
   -0.9790   -0.7070    1.6000 C   0  0
   -1.4940   -1.0140    0.1930 C   0  0  2  0  0  0
   -2.8630   -0.6820    0.1440 O   0  0
   -1.3460   -2.4880   -0.1800 C   0  0
   -0.7700   -0.2150   -0.8890 C   0  0
   -0.0700   -2.7210   -0.6230 F   0  0
   -2.2380   -2.8010   -1.1700 F   0  0
   -1.5940   -3.2660    0.9220 F   0  0
   -1.4080    1.1500   -1.1430 C   0  0
   -2.7150    1.0210   -1.8440 C   0  0
   -1.5310    1.9900    0.1290 C   0  0
   -0.7400    1.9120   -2.2890 C   0  0
   -3.6250    2.1000   -1.8810 C   0  0
   -3.0410   -0.1910   -2.4730 C   0  0
   -3.2990    3.3980   -1.2190 C   0  0
   -4.8540    1.9530   -2.5510 C   0  0
   -4.2700   -0.3340   -3.1410 C   0  0
   -2.4590    4.1370   -1.6760 O   0  0
   -3.9710    3.7420   -0.0780 N   0  0
   -5.1760    0.7380   -3.1780 C   0  0
    7.9670   -0.8110    1.1460 H   0  0
    8.8010   -2.1000    2.0100 H   0  0
    7.8320   -0.9280    2.8980 H   0  0
    3.7270   -3.4200    1.7250 H   0  0
    4.0140    1.5080    1.9060 H   0  0
    0.9800   -3.0020    1.6130 H   0  0
    1.1090    1.2710    1.7600 H   0  0
   -1.4220   -1.3830    2.3300 H   0  0
   -1.2850    0.2910    1.9140 H   0  0
   -3.2750   -1.0470    0.9430 H   0  0
    0.2870   -0.1060   -0.6450 H   0  0
   -0.7050   -0.7870   -1.8130 H   0  0
   -2.4960    1.8480    0.6170 H   0  0
   -1.4260    3.0510   -0.0960 H   0  0
   -0.7540    1.7230    0.8460 H   0  0
   -1.3180    1.8090   -3.2070 H   0  0
   -0.6460    2.9690   -2.0450 H   0  0
    0.2600    1.5210   -2.4790 H   0  0
   -2.3500   -1.0220   -2.4470 H   0  0
   -5.5590    2.7710   -2.5860 H   0  0
   -4.5180   -1.2680   -3.6230 H   0  0
   -3.7870    4.6000    0.4020 H   0  0
   -4.6660    3.1310    0.2990 H   0  0
   -6.1210    0.6310   -3.6910 H   0  0
  1  2  2  0
  1  3  2  0
  1  4  1  0
  1  5  1  0
  4  6  2  0
  4  7  1  0
  6  8  1  0
  7  9  2  0
  8 10  2  0
  9 11  1  0
 10 12  1  0
 11 13  2  0
 13 14  1  0
 14 15  1  0
 15 16  1  0
 15 17  1  0
 15 18  1  0
 17 19  1  0
 17 20  1  0
 17 21  1  0
 18 22  1  0
 22 23  1  0
 22 24  1  0
 22 25  1  0
 23 26  2  0
 23 27  1  0
 26 28  1  0
 26 29  1  0
 27 30  2  0
 28 31  2  0
 28 32  1  0
 29 33  2  0
  9 10  1  0
 12 13  1  0
 30 33  1  0
  5 34  1  0
  5 35  1  0
  5 36  1  0
  7 37  1  0
  8 38  1  0
 11 39  1  0
 12 40  1  0
 14 41  1  0
 14 42  1  0
 16 43  1  0
 18 44  1  0
 18 45  1  0
 24 46  1  0
 24 47  1  0
 24 48  1  0
 25 49  1  0
 25 50  1  0
 25 51  1  0
 27 52  1  0
 29 53  1  0
 30 54  1  0
 32 55  1  0
 32 56  1  0
 33 57  1  0
M  END
> <Name>
CHEMBL3358942

> <IC50 nM>
80

> <Molecule_ChEMBL_ID>
CHEMBL3358942

> <Smiles>
CC(C)(CC(O)(Cc1cc2cc(S(C)(=O)=O)ncc2[nH]1)C(F)(F)F)c1ccccc1C(N)=O

$$$$
CHEMBL3261419
  SciTegic08162514323D

 64 67  0  0  1  0            999 V2000
   -1.4960   -3.1680    1.3460 S   0  0
   -0.9260   -3.6640    2.5880 O   0  0
   -1.9980   -1.8110    1.4490 O   0  0
   -0.1820   -3.1090    0.2070 N   0  0
   -2.8070   -4.2010    0.9000 C   0  0
    1.0310   -2.4120    0.6000 C   0  0  2  0  0  0
   -2.8030   -5.5530    1.2910 C   0  0
   -3.8790   -3.6890    0.1450 C   0  0
    0.7400   -0.9300    0.8420 C   0  0
    2.1370   -2.6350   -0.4340 C   0  0
   -3.8710   -6.3930    0.9280 C   0  0
   -1.6740   -6.1000    2.0900 C   0  0
   -4.9450   -4.5310   -0.2190 C   0  0
   -3.8910   -2.2620   -0.2730 C   0  0
    0.1700   -0.3010   -0.3570 N   0  0
   -4.9420   -5.8830    0.1720 C   0  0
    0.0590    1.0390   -0.4280 C   0  0
   -6.0700   -6.7700   -0.2130 C   0  0
    1.2930    1.7660   -0.5350 C   0  0
   -1.1840    1.7250   -0.3980 C   0  0
    1.2170    3.1500   -0.6090 C   0  0
    2.5680    1.2030   -0.5740 C   0  0
   -1.2090    3.1410   -0.4770 C   0  0
    2.5210    3.5180   -0.6990 N   0  0
   -0.0020    3.8710   -0.5840 C   0  0
    3.2850    2.3750   -0.6780 N   0  0
    3.0060    4.7830   -0.7970 C   0  0
    2.3910    5.7130   -1.6580 C   0  0
    4.1250    5.1720   -0.0370 C   0  0
    2.8930    7.0220   -1.7580 C   0  0
    4.6250    6.4810   -0.1390 C   0  0
    4.0120    7.4080   -0.9980 C   0  0
    4.4820    8.6370   -1.0920 O   0  0
    5.5630    9.0020   -0.2460 C   0  0
    0.0740   -4.0680   -0.0720 H   0  0
    1.2710   -2.9160    1.5350 H   0  0
    0.0510   -0.8050    1.6760 H   0  0
    1.6500   -0.4000    1.1270 H   0  0
    3.0660   -2.1460   -0.1450 H   0  0
    1.8400   -2.2400   -1.4060 H   0  0
    2.3420   -3.6990   -0.5530 H   0  0
   -3.8690   -7.4300    1.2290 H   0  0
   -0.6880   -5.8130    1.7270 H   0  0
   -1.7250   -7.1900    2.0920 H   0  0
   -1.7620   -5.7620    3.1230 H   0  0
   -5.7680   -4.1390   -0.7990 H   0  0
   -2.9430   -1.9060   -0.6780 H   0  0
   -4.1450   -1.6370    0.5800 H   0  0
   -4.6540   -2.1130   -1.0370 H   0  0
   -0.1390   -0.8570   -1.1290 H   0  0
   -6.8460   -6.2810   -0.8010 H   0  0
   -6.5370   -7.1740    0.6860 H   0  0
   -5.6900   -7.6090   -0.7950 H   0  0
   -2.1130    1.1800   -0.3160 H   0  0
    2.9430    0.1890   -0.5370 H   0  0
   -2.1540    3.6640   -0.4550 H   0  0
   -0.0140    4.9490   -0.6430 H   0  0
    1.5290    5.4360   -2.2500 H   0  0
    4.6130    4.4730    0.6310 H   0  0
    2.4180    7.7310   -2.4180 H   0  0
    5.4840    6.7740    0.4470 H   0  0
    5.8480   10.0280   -0.4820 H   0  0
    5.2680    8.8090    0.7850 H   0  0
    6.4100    8.3600   -0.4770 H   0  0
  1  2  2  0
  1  3  2  0
  1  4  1  0
  1  5  1  0
  4  6  1  0
  5  7  2  0
  5  8  1  0
  6  9  1  0
  6 10  1  0
  7 11  1  0
  7 12  1  0
  8 13  2  0
  8 14  1  0
  9 15  1  0
 11 16  2  0
 15 17  1  0
 16 18  1  0
 17 19  2  0
 17 20  1  0
 19 21  1  0
 19 22  1  0
 20 23  2  0
 21 24  1  0
 21 25  2  0
 22 26  2  0
 24 27  1  0
 27 28  2  0
 27 29  1  0
 28 30  1  0
 29 31  2  0
 30 32  2  0
 32 33  1  0
 33 34  1  0
 13 16  1  0
 23 25  1  0
 24 26  1  0
 31 32  1  0
  4 35  1  0
  6 36  1  0
  9 37  1  0
  9 38  1  0
 10 39  1  0
 10 40  1  0
 10 41  1  0
 11 42  1  0
 12 43  1  0
 12 44  1  0
 12 45  1  0
 13 46  1  0
 14 47  1  0
 14 48  1  0
 14 49  1  0
 15 50  1  0
 18 51  1  0
 18 52  1  0
 18 53  1  0
 20 54  1  0
 22 55  1  0
 23 56  1  0
 25 57  1  0
 28 58  1  0
 29 59  1  0
 30 60  1  0
 31 61  1  0
 34 62  1  0
 34 63  1  0
 34 64  1  0
M  END
> <Name>
CHEMBL3261419

> <IC50 nM>
5.4

> <Molecule_ChEMBL_ID>
CHEMBL3261419

> <Smiles>
COc1ccc(-n2ncc3c(NC[C@H](C)NS(=O)(=O)c4c(C)cc(C)cc4C)cccc32)cc1

$$$$
CHEMBL3261166
  SciTegic08162514323D

 52 53  0  0  1  0            999 V2000
   -1.6600    1.6310   -0.2830 S   0  0
   -2.0060    2.5020   -1.3930 O   0  0
   -2.7680    0.8050    0.1640 O   0  0
   -0.4570    0.5310   -0.8930 N   0  0
   -1.1470    2.6170    1.0430 C   0  0
   -0.8460   -0.3830   -1.9530 C   0  0  2  0  0  0
   -0.5760    3.8790    0.7990 C   0  0
   -1.3030    2.1540    2.3630 C   0  0
    0.1950   -1.4920   -2.1090 C   0  0
   -1.0940    0.3790   -3.2540 C   0  0
   -0.1600    4.6800    1.8790 C   0  0
   -0.4100    4.3730   -0.5940 C   0  0
   -0.8850    2.9570    3.4390 C   0  0
   -1.9040    0.8220    2.6270 C   0  0
    0.3140   -2.2050   -0.8850 O   0  0
   -0.3140    4.2190    3.1970 C   0  0
    1.0160   -3.3220   -0.8850 C   0  0
    0.1270    5.0670    4.3380 C   0  0
    0.3590   -4.5700   -0.8850 C   0  0
    2.4240   -3.2750   -0.8850 C   0  0
    1.1070   -5.7600   -0.8850 C   0  0
   -1.1270   -4.6370   -0.8850 C   0  0
    3.1700   -4.4670   -0.8850 C   0  0
    3.1330   -1.9670   -0.8850 C   0  0
    2.5120   -5.7090   -0.8850 C   0  0
    0.3650    1.0650   -1.2110 H   0  0
   -1.7790   -0.7830   -1.5570 H   0  0
    1.1700   -1.0740   -2.3570 H   0  0
   -0.1050   -2.1970   -2.8850 H   0  0
   -2.0140    0.9590   -3.1910 H   0  0
   -0.2640    1.0530   -3.4710 H   0  0
   -1.1910   -0.3110   -4.0920 H   0  0
    0.2790    5.6510    1.6930 H   0  0
    0.0250    3.6470   -1.2790 H   0  0
    0.2320    5.2540   -0.5920 H   0  0
   -1.3790    4.6700   -0.9920 H   0  0
   -1.0040    2.6040    4.4530 H   0  0
   -2.9730    0.7620    2.4140 H   0  0
   -1.7600    0.5590    3.6740 H   0  0
   -1.4020    0.0680    2.0210 H   0  0
   -0.0350    4.6190    5.3180 H   0  0
   -0.4060    6.0180    4.3110 H   0  0
    1.1910    5.2790    4.2400 H   0  0
    0.6070   -6.7170   -0.8850 H   0  0
   -1.6190   -3.6640   -0.8810 H   0  0
   -1.4650   -5.1860   -0.0080 H   0  0
   -1.4650   -5.1780   -1.7700 H   0  0
    4.2480   -4.4340   -0.8850 H   0  0
    3.3340   -1.5660   -1.8790 H   0  0
    4.0860   -2.0700   -0.3690 H   0  0
    2.5370   -1.2320   -0.3440 H   0  0
    3.0840   -6.6230   -0.8850 H   0  0
  1  2  2  0
  1  3  2  0
  1  4  1  0
  1  5  1  0
  4  6  1  0
  5  7  2  0
  5  8  1  0
  6  9  1  0
  6 10  1  0
  7 11  1  0
  7 12  1  0
  8 13  2  0
  8 14  1  0
  9 15  1  0
 11 16  2  0
 15 17  1  0
 16 18  1  0
 17 19  2  0
 17 20  1  0
 19 21  1  0
 19 22  1  0
 20 23  2  0
 20 24  1  0
 21 25  2  0
 13 16  1  0
 23 25  1  0
  4 26  1  0
  6 27  1  0
  9 28  1  0
  9 29  1  0
 10 30  1  0
 10 31  1  0
 10 32  1  0
 11 33  1  0
 12 34  1  0
 12 35  1  0
 12 36  1  0
 13 37  1  0
 14 38  1  0
 14 39  1  0
 14 40  1  0
 18 41  1  0
 18 42  1  0
 18 43  1  0
 21 44  1  0
 22 45  1  0
 22 46  1  0
 22 47  1  0
 23 48  1  0
 24 49  1  0
 24 50  1  0
 24 51  1  0
 25 52  1  0
M  END
> <Name>
CHEMBL3261166

> <IC50 nM>
85

> <Molecule_ChEMBL_ID>
CHEMBL3261166

> <Smiles>
Cc1cc(C)c(S(=O)(=O)N[C@@H](C)COc2c(C)cccc2C)c(C)c1

$$$$
CHEMBL3261176
  SciTegic08162514323D

 48 50  0  0  1  0            999 V2000
    0.7030   -1.9860    0.5530 S   0  0
    1.2770   -2.3010   -0.7420 O   0  0
    1.6480   -2.1250    1.6490 O   0  0
    0.2850   -0.2970    0.4940 N   0  0
   -0.6190   -3.0590    0.8360 C   0  0
   -0.3990    0.1950   -0.6890 C   0  0  2  0  0  0
   -0.5590   -4.3930    0.3970 C   0  0
   -1.7600   -2.5880    1.5100 C   0  0
   -0.4790    1.7210   -0.6660 C   0  0
   -1.7720   -0.4670   -0.8300 C   0  0
   -1.6430   -5.2580    0.6350 C   0  0
    0.6440   -4.8970   -0.3160 C   0  0
   -2.8440   -3.4530    1.7460 C   0  0
    0.8320    2.2640   -0.6170 O   0  0
   -2.7850   -4.7890    1.3090 C   0  0
    0.9630    3.6000   -0.6310 C   0  0
   -3.9300   -5.7030    1.5590 C   0  0
    2.2440    4.2130   -0.6450 C   0  0
   -0.2010    4.4040   -0.6310 C   0  0
    2.3570    5.6430   -0.6580 C   0  0
    3.4280    3.4260   -0.6450 C   0  0
   -0.0920    5.8130   -0.6450 C   0  0
    3.6010    6.2480   -0.6720 N   0  0
    1.1800    6.4300   -0.6580 C   0  0
    4.6910    4.0680   -0.6580 C   0  0
    4.7500    5.4820   -0.6720 C   0  0
   -0.2830   -0.0550    1.3180 H   0  0
    0.2730   -0.1450   -1.4780 H   0  0
   -1.8070   -1.5630    1.8480 H   0  0
   -1.0240    2.0640    0.2130 H   0  0
   -0.9690    2.0960   -1.5660 H   0  0
   -2.3130   -0.0550   -1.6820 H   0  0
   -1.6680   -1.5430   -0.9610 H   0  0
   -2.3730   -0.2950    0.0630 H   0  0
   -1.6000   -6.2830    0.2970 H   0  0
    1.5920   -4.5680    0.1150 H   0  0
    0.6190   -4.5630   -1.3530 H   0  0
    0.6390   -5.9860   -0.3160 H   0  0
   -3.7170   -3.0880    2.2660 H   0  0
   -4.7660   -5.2420    2.0820 H   0  0
   -3.5940   -6.5530    2.1500 H   0  0
   -4.3030   -6.0860    0.6070 H   0  0
   -1.1760    3.9410   -0.6210 H   0  0
    3.3870    2.3460   -0.6370 H   0  0
   -0.9860    6.4200   -0.6460 H   0  0
    1.2360    7.5100   -0.6680 H   0  0
    5.6000    3.4840   -0.6600 H   0  0
    5.7110    5.9730   -0.6820 H   0  0
  1  2  2  0
  1  3  2  0
  1  4  1  0
  1  5  1  0
  4  6  1  0
  5  7  2  0
  5  8  1  0
  6  9  1  0
  6 10  1  0
  7 11  1  0
  7 12  1  0
  8 13  2  0
  9 14  1  0
 11 15  2  0
 14 16  1  0
 15 17  1  0
 16 18  2  0
 16 19  1  0
 18 20  1  0
 18 21  1  0
 19 22  2  0
 20 23  1  0
 20 24  2  0
 21 25  2  0
 23 26  2  0
 13 15  1  0
 22 24  1  0
 25 26  1  0
  4 27  1  0
  6 28  1  0
  8 29  1  0
  9 30  1  0
  9 31  1  0
 10 32  1  0
 10 33  1  0
 10 34  1  0
 11 35  1  0
 12 36  1  0
 12 37  1  0
 12 38  1  0
 13 39  1  0
 17 40  1  0
 17 41  1  0
 17 42  1  0
 19 43  1  0
 21 44  1  0
 22 45  1  0
 24 46  1  0
 25 47  1  0
 26 48  1  0
M  END
> <Name>
CHEMBL3261176

> <IC50 nM>
1600

> <Molecule_ChEMBL_ID>
CHEMBL3261176

> <Smiles>
Cc1ccc(S(=O)(=O)N[C@@H](C)COc2cccc3ncccc23)c(C)c1

$$$$
CHEMBL1668080
  SciTegic08162514323D

 75 78  0  0  1  0            999 V2000
   -1.2810   -5.3710    0.8930 S   0  0
   -2.3260   -6.3790    0.9390 O   0  0
   -0.4340   -5.4810   -0.2810 O   0  0
   -2.0960   -3.8400    0.7540 N   0  0
   -0.2910   -5.5510    2.2970 C   0  0
   -2.8400   -3.5700   -0.4650 C   0  0  2  0  0  0
   -0.1520   -6.8130    2.9040 C   0  0
    0.3770   -4.4340    2.8340 C   0  0
   -3.2070   -2.0900   -0.5530 C   0  0
   -4.0610   -4.4860   -0.5610 C   0  0
    0.6540   -6.9570    4.0470 C   0  0
   -0.8550   -7.9960    2.3440 C   0  0
    1.1820   -4.5800    3.9770 C   0  0
    0.2360   -3.0960    2.1970 C   0  0
   -2.0020   -1.2560   -0.6760 N   0  0
    1.3220   -5.8420    4.5840 C   0  0
   -2.1150    0.0860   -0.7460 C   0  0
    2.1740   -5.9940    5.7930 C   0  0
   -0.8830    0.8140   -0.8540 C   0  0
   -3.3590    0.7680   -0.7170 C   0  0
   -0.9610    2.1970   -0.9280 C   0  0
    0.3950    0.2540   -0.8930 C   0  0
   -3.3890    2.1860   -0.7950 C   0  0
    0.3440    2.5680   -1.0180 N   0  0
   -2.1800    2.9180   -0.9000 C   0  0
    1.1070    1.4260   -0.9960 N   0  0
   -4.6760    2.8970   -0.7660 C   0  0
    0.8280    3.8340   -1.1150 C   0  0
    1.8540    4.1310   -2.0350 C   0  0
    0.3050    4.8520   -0.2970 C   0  0
    2.3540    5.4430   -2.1330 C   0  0
    0.8050    6.1620   -0.3970 C   0  0
    3.3520    5.7330   -3.0250 N   0  0
    1.8280    6.4590   -1.3130 C   0  0
    3.9410    7.0780   -3.0590 C   0  0  1  0  0  0
    5.3590    7.0510   -3.5610 C   0  0
    3.0610    8.0450   -3.8500 C   0  0
    5.6600    7.5740   -4.6090 O   0  0
    6.3110    6.4200   -2.8090 N   0  0
   -2.7320   -3.7170    1.5550 H   0  0
   -2.1040   -3.8320   -1.2250 H   0  0
   -3.7700   -1.7790    0.3280 H   0  0
   -3.8590   -1.9040   -1.4060 H   0  0
   -3.7540   -5.5250   -0.6930 H   0  0
   -4.6720   -4.4080    0.3380 H   0  0
   -4.6840   -4.2110   -1.4120 H   0  0
    0.7600   -7.9260    4.5140 H   0  0
   -0.7790   -8.0920    1.2600 H   0  0
   -1.9120   -7.9470    2.6000 H   0  0
   -0.4450   -8.9040    2.7850 H   0  0
    1.6950   -3.7230    4.3890 H   0  0
    0.2810   -3.1110    1.1090 H   0  0
    1.0270   -2.4380    2.5550 H   0  0
   -0.7190   -2.6560    2.4860 H   0  0
   -1.0980   -1.6840   -0.7070 H   0  0
    2.6470   -5.0720    6.1270 H   0  0
    2.9630   -6.7190    5.5900 H   0  0
    1.5700   -6.3790    6.6150 H   0  0
   -4.2850    0.2150   -0.6350 H   0  0
    0.7710   -0.7600   -0.8560 H   0  0
   -2.1880    3.9960   -0.9610 H   0  0
   -5.5450    2.2440   -0.6820 H   0  0
   -4.7870    3.4840   -1.6760 H   0  0
   -4.6910    3.5840    0.0800 H   0  0
    2.2580    3.3500   -2.6660 H   0  0
   -0.4820    4.6450    0.4160 H   0  0
    0.4020    6.9420    0.2340 H   0  0
    3.6680    5.0200   -3.6520 H   0  0
    2.1990    7.4710   -1.3730 H   0  0
    4.0800    7.4340   -2.0370 H   0  0
    2.0450    8.0840   -3.4570 H   0  0
    3.0020    7.7440   -4.8970 H   0  0
    3.4710    9.0550   -3.8180 H   0  0
    7.2660    6.3710   -3.1000 H   0  0
    6.0610    5.9880   -1.9410 H   0  0
  1  2  2  0
  1  3  2  0
  1  4  1  0
  1  5  1  0
  4  6  1  0
  5  7  2  0
  5  8  1  0
  6  9  1  0
  6 10  1  0
  7 11  1  0
  7 12  1  0
  8 13  2  0
  8 14  1  0
  9 15  1  0
 11 16  2  0
 15 17  1  0
 16 18  1  0
 17 19  2  0
 17 20  1  0
 19 21  1  0
 19 22  1  0
 20 23  2  0
 21 24  1  0
 21 25  2  0
 22 26  2  0
 23 27  1  0
 24 28  1  0
 28 29  2  0
 28 30  1  0
 29 31  1  0
 30 32  2  0
 31 33  1  0
 31 34  2  0
 33 35  1  0
 35 36  1  0
 35 37  1  0
 36 38  2  0
 36 39  1  0
 13 16  1  0
 23 25  1  0
 24 26  1  0
 32 34  1  0
  4 40  1  0
  6 41  1  0
  9 42  1  0
  9 43  1  0
 10 44  1  0
 10 45  1  0
 10 46  1  0
 11 47  1  0
 12 48  1  0
 12 49  1  0
 12 50  1  0
 13 51  1  0
 14 52  1  0
 14 53  1  0
 14 54  1  0
 15 55  1  0
 18 56  1  0
 18 57  1  0
 18 58  1  0
 20 59  1  0
 22 60  1  0
 25 61  1  0
 27 62  1  0
 27 63  1  0
 27 64  1  0
 29 65  1  0
 30 66  1  0
 32 67  1  0
 33 68  1  0
 34 69  1  0
 35 70  1  0
 37 71  1  0
 37 72  1  0
 37 73  1  0
 39 74  1  0
 39 75  1  0
M  END
> <Name>
CHEMBL1668080

> <IC50 nM>
15.85

> <Molecule_ChEMBL_ID>
CHEMBL1668080

> <Smiles>
Cc1cc(C)c(S(=O)(=O)N[C@@H](C)CNc2cc(C)cc3c2cnn3-c2cccc(N[C@H](C)C(N)=O)c2)c(C)c1

$$$$
CHEMBL3137304
  SciTegic08162514323D

 65 69  0  0  1  0            999 V2000
   -4.9920   -3.3790    3.0410 F   0  0
   -4.8400   -2.0700    2.6620 C   0  0
   -5.9100   -1.3360    3.1040 F   0  0
   -3.6860   -1.5680    3.2050 F   0  0
   -4.7600   -1.9860    1.1330 C   0  0  2  0  0  0
   -6.0270   -2.3950    0.6540 O   0  0
   -3.6990   -2.9590    0.5780 C   0  0
   -4.5120   -0.5390    0.6600 C   0  0
   -2.2620   -2.4590    0.8440 C   0  0  2  0  0  0
   -3.0590   -0.0840    0.8970 C   0  0
   -2.0270   -1.0430    0.2440 C   0  0  1  0  0  0
   -1.1910   -3.5120    0.4470 C   0  0
   -0.5960   -0.6500    0.4630 C   0  0
   -2.2790   -1.0550   -1.2750 C   0  0
    0.0100   -2.9410   -0.3360 C   0  0
    0.4160   -1.6060    0.1580 C   0  0
   -0.2110    0.6290    0.9570 C   0  0
   -1.8070    0.1970   -1.9200 C   0  0
    1.7850   -1.2770    0.3220 C   0  0
    1.1580    0.9510    1.1210 C   0  0
   -0.4900    0.2870   -2.4080 C   0  0
   -2.6760    1.2970   -2.0430 C   0  0
    2.1540    0.0020    0.7970 C   0  0
   -0.0450    1.4730   -3.0160 C   0  0
   -2.2280    2.4820   -2.6520 C   0  0
    3.5860    0.3480    0.9550 C   0  0
   -0.9140    2.5700   -3.1390 C   0  0
    4.4810   -0.3240    1.4100 O   0  0
    3.8360    1.6110    0.4980 N   0  0
    5.1080    2.1230    0.5570 C   0  0
    5.6450    2.8910   -0.5060 C   0  0
    5.9010    1.8810    1.6950 C   0  0
    6.9120    3.3950   -0.4390 N   0  0
    4.8520    3.1760   -1.7340 C   0  0
    7.2010    2.4080    1.7460 C   0  0
    7.6820    3.1640    0.6620 C   0  0
   -5.9940   -2.3520   -0.3140 H   0  0
   -3.8320   -3.1070   -0.4980 H   0  0
   -3.8420   -3.9410    1.0290 H   0  0
   -5.1970    0.1330    1.1720 H   0  0
   -4.7420   -0.4390   -0.4020 H   0  0
   -2.1720   -2.3480    1.9280 H   0  0
   -2.9610    0.9260    0.4960 H   0  0
   -2.8710   -0.0120    1.9690 H   0  0
   -0.8140   -3.9830    1.3590 H   0  0
   -1.6350   -4.3240   -0.1330 H   0  0
   -3.3380   -1.1970   -1.4880 H   0  0
   -1.7870   -1.9100   -1.7400 H   0  0
    0.8400   -3.6470   -0.2850 H   0  0
   -0.2560   -2.8560   -1.3930 H   0  0
   -0.9430    1.3770    1.2150 H   0  0
    2.5430   -2.0100    0.0820 H   0  0
    1.4340    1.9240    1.4980 H   0  0
    0.1820   -0.5550   -2.3160 H   0  0
   -3.6870    1.2360   -1.6720 H   0  0
    0.9670    1.5390   -3.3910 H   0  0
   -2.8960    3.3260   -2.7460 H   0  0
   -0.5700    3.4800   -3.6070 H   0  0
    3.0940    2.1660    0.1210 H   0  0
    5.5270    1.3010    2.5270 H   0  0
    5.4400    3.7950   -2.4120 H   0  0
    4.5350    2.2380   -2.1880 H   0  0
    3.9550    3.7340   -1.4650 H   0  0
    7.8240    2.2340    2.6110 H   0  0
    8.6820    3.5700    0.6990 H   0  0
  1  2  1  0
  2  3  1  0
  2  4  1  0
  2  5  1  0
  5  6  1  0
  5  7  1  0
  5  8  1  0
  9  7  1  0
  8 10  1  0
  9 11  1  0
  9 12  1  0
 11 13  1  0
 11 14  1  0
 12 15  1  0
 13 16  2  0
 13 17  1  0
 14 18  1  0
 16 19  1  0
 17 20  2  0
 18 21  2  0
 18 22  1  0
 19 23  2  0
 21 24  1  0
 22 25  2  0
 23 26  1  0
 24 27  2  0
 26 28  2  0
 26 29  1  0
 29 30  1  0
 30 31  2  0
 30 32  1  0
 31 33  1  0
 31 34  1  0
 32 35  2  0
 33 36  2  0
 10 11  1  0
 15 16  1  0
 20 23  1  0
 25 27  1  0
 35 36  1  0
  6 37  1  0
  7 38  1  0
  7 39  1  0
  8 40  1  0
  8 41  1  0
  9 42  1  0
 10 43  1  0
 10 44  1  0
 12 45  1  0
 12 46  1  0
 14 47  1  0
 14 48  1  0
 15 49  1  0
 15 50  1  0
 17 51  1  0
 19 52  1  0
 20 53  1  0
 21 54  1  0
 22 55  1  0
 24 56  1  0
 25 57  1  0
 27 58  1  0
 29 59  1  0
 32 60  1  0
 34 61  1  0
 34 62  1  0
 34 63  1  0
 35 64  1  0
 36 65  1  0
M  END
> <Name>
CHEMBL3137304

> <IC50 nM>
35

> <Molecule_ChEMBL_ID>
CHEMBL3137304

> <Smiles>
Cc1ncccc1NC(=O)c1ccc2c(c1)CC[C@@H]1C[C@@](O)(C(F)(F)F)CC[C@@]21Cc1ccccc1

$$$$
CHEMBL236406
  SciTegic08162514323D

 54 55  0  0  1  0            999 V2000
   -0.7560    5.5660    3.3650 F   0  0
   -0.2320    4.8690    2.3590 C   0  0
   -0.7130    3.5800    2.0700 C   0  0
    0.8050    5.4220    1.5880 C   0  0
   -0.1580    2.8440    1.0080 C   0  0
    1.3590    4.6860    0.5270 C   0  0
    0.8810    3.3970    0.2320 C   0  0
   -0.6760    1.4820    0.7090 C   0  0
    1.4080    2.7150   -0.7660 O   0  0
    0.5230    0.7680    1.3320 C   0  0
   -0.7910    1.2400   -0.7950 C   0  0
   -1.9810    1.1990    1.4530 C   0  0
    2.4530    3.3220   -1.5080 C   0  0
    0.2540   -0.7130    1.6010 C   0  0  2  0  0  0
   -0.7310   -0.8070    2.6050 O   0  0
    1.5550   -1.3010    2.1500 C   0  0
   -0.2520   -1.4550    0.3630 C   0  0
    2.5840   -1.0180    1.2890 F   0  0
    1.4260   -2.6600    2.2750 F   0  0
    1.8220   -0.7520    3.3770 F   0  0
    0.8200   -1.6060   -0.7150 C   0  0
    0.2340   -1.9340   -2.0880 C   0  0
   -0.4610   -3.2460   -2.0880 C   0  0
   -1.8670   -3.2990   -2.0880 C   0  0
    0.2850   -4.4400   -2.0880 C   0  0
   -2.5250   -4.5410   -2.0880 C   0  0
   -0.3730   -5.6800   -2.0880 C   0  0
   -1.7770   -5.7310   -2.0880 C   0  0
   -1.5100    3.1580    2.6640 H   0  0
    1.1780    6.4120    1.8060 H   0  0
    2.1540    5.1130   -0.0650 H   0  0
    0.8440    1.2710    2.2420 H   0  0
    1.4100    0.8910    0.7090 H   0  0
   -0.8980    2.1720   -1.3500 H   0  0
   -1.6580    0.6170   -1.0220 H   0  0
    0.0940    0.7280   -1.1720 H   0  0
   -2.7560    1.9260    1.2070 H   0  0
   -1.8260    1.2340    2.5330 H   0  0
   -2.3610    0.2090    1.2030 H   0  0
    2.0490    4.2050   -2.0060 H   0  0
    3.2970    3.4900   -0.8380 H   0  0
    2.7750    2.6230   -2.2800 H   0  0
   -0.8980   -1.7500    2.7540 H   0  0
   -1.1390   -0.9690   -0.0410 H   0  0
   -0.6620   -2.4280    0.6380 H   0  0
    1.5590   -2.3540   -0.4220 H   0  0
    1.4450   -0.7150   -0.7640 H   0  0
    1.0160   -1.9360   -2.8500 H   0  0
   -0.4590   -1.1540   -2.4070 H   0  0
   -2.4450   -2.3870   -2.0880 H   0  0
    1.3650   -4.4060   -2.0880 H   0  0
   -3.6040   -4.5800   -2.0880 H   0  0
    0.1990   -6.5960   -2.0880 H   0  0
   -2.2830   -6.6860   -2.0880 H   0  0
  1  2  1  0
  2  3  2  0
  2  4  1  0
  3  5  1  0
  4  6  2  0
  5  7  2  0
  5  8  1  0
  7  9  1  0
  8 10  1  0
  8 11  1  0
  8 12  1  0
  9 13  1  0
 10 14  1  0
 14 15  1  0
 14 16  1  0
 14 17  1  0
 16 18  1  0
 16 19  1  0
 16 20  1  0
 17 21  1  0
 21 22  1  0
 22 23  1  0
 23 24  2  0
 23 25  1  0
 24 26  1  0
 25 27  2  0
 26 28  2  0
  6  7  1  0
 27 28  1  0
  3 29  1  0
  4 30  1  0
  6 31  1  0
 10 32  1  0
 10 33  1  0
 11 34  1  0
 11 35  1  0
 11 36  1  0
 12 37  1  0
 12 38  1  0
 12 39  1  0
 13 40  1  0
 13 41  1  0
 13 42  1  0
 15 43  1  0
 17 44  1  0
 17 45  1  0
 21 46  1  0
 21 47  1  0
 22 48  1  0
 22 49  1  0
 24 50  1  0
 25 51  1  0
 26 52  1  0
 27 53  1  0
 28 54  1  0
M  END
> <Name>
CHEMBL236406

> <IC50 nM>
1125

> <Molecule_ChEMBL_ID>
CHEMBL236406

> <Smiles>
COc1ccc(F)cc1C(C)(C)CC(O)(CCCc1ccccc1)C(F)(F)F

$$$$
CHEMBL400628
  SciTegic08162514323D

 48 49  0  0  1  0            999 V2000
    1.8130    1.0350    5.2230 F   0  0
    1.2050    0.4200    4.2110 C   0  0
    0.8810    1.1350    3.0450 C   0  0
    0.8870   -0.9450    4.3080 C   0  0
    0.2380    0.4840    1.9760 C   0  0
    0.2460   -1.5960    3.2400 C   0  0
   -0.0800   -0.8850    2.0720 C   0  0
   -0.1000    1.2500    0.7460 C   0  0
   -0.6820   -1.5040    1.0760 O   0  0
    0.9900    0.5920   -0.1000 C   0  0
    0.1290    2.7500    0.9370 C   0  0
   -1.5100    0.9260    0.2520 C   0  0
   -0.8610   -2.9080    1.1760 C   0  0
    1.2600    1.3440   -1.4040 C   0  0  1  0  0  0
    1.5720    2.6820   -1.0840 O   0  0
    2.4960    0.7010   -2.0310 C   0  0
    0.0550    1.3460   -2.3440 C   0  0
    2.2330    0.3790   -3.3380 F   0  0
    2.8200   -0.4380   -1.3380 F   0  0
    3.5450    1.5820   -1.9790 F   0  0
   -0.6430    0.0330   -2.3440 C   0  0
   -2.0470   -0.0200   -2.3440 C   0  0
    0.1040   -1.1600   -2.3440 C   0  0
   -2.7050   -1.2620   -2.3440 C   0  0
   -0.5550   -2.4020   -2.3440 C   0  0
   -1.9590   -2.4530   -2.3440 C   0  0
    1.1270    2.1840    2.9730 H   0  0
    1.1350   -1.5000    5.2030 H   0  0
    0.0040   -2.6450    3.3180 H   0  0
    0.7420   -0.4510   -0.3010 H   0  0
    1.9080    0.4760    0.4740 H   0  0
   -0.4020    3.1350    1.8080 H   0  0
   -0.2170    3.3070    0.0660 H   0  0
    1.1900    2.9650    1.0720 H   0  0
   -2.2420    0.9710    1.0560 H   0  0
   -1.5470   -0.0740   -0.1780 H   0  0
   -1.8180    1.6310   -0.5200 H   0  0
    0.1210   -3.3730    1.2540 H   0  0
   -1.5550   -3.1080    1.9940 H   0  0
   -1.3240   -3.2600    0.2540 H   0  0
    1.5080    3.1930   -1.9060 H   0  0
    0.3590    1.5960   -3.3620 H   0  0
   -0.6500    2.1310   -2.0670 H   0  0
   -2.6270    0.8930   -2.3440 H   0  0
    1.1840   -1.1270   -2.3440 H   0  0
   -3.7850   -1.3010   -2.3440 H   0  0
    0.0200   -3.3170   -2.3440 H   0  0
   -2.4650   -3.4080   -2.3440 H   0  0
  1  2  1  0
  2  3  2  0
  2  4  1  0
  3  5  1  0
  4  6  2  0
  5  7  2  0
  5  8  1  0
  7  9  1  0
  8 10  1  0
  8 11  1  0
  8 12  1  0
  9 13  1  0
 10 14  1  0
 14 15  1  0
 14 16  1  0
 14 17  1  0
 16 18  1  0
 16 19  1  0
 16 20  1  0
 17 21  1  0
 21 22  2  0
 21 23  1  0
 22 24  1  0
 23 25  2  0
 24 26  2  0
  6  7  1  0
 25 26  1  0
  3 27  1  0
  4 28  1  0
  6 29  1  0
 10 30  1  0
 10 31  1  0
 11 32  1  0
 11 33  1  0
 11 34  1  0
 12 35  1  0
 12 36  1  0
 12 37  1  0
 13 38  1  0
 13 39  1  0
 13 40  1  0
 15 41  1  0
 17 42  1  0
 17 43  1  0
 22 44  1  0
 23 45  1  0
 24 46  1  0
 25 47  1  0
 26 48  1  0
M  END
> <Name>
CHEMBL400628

> <IC50 nM>
610

> <Molecule_ChEMBL_ID>
CHEMBL400628

> <Smiles>
COc1ccc(F)cc1C(C)(C)CC(O)(Cc1ccccc1)C(F)(F)F

$$$$
CHEMBL203885
  SciTegic08162514323D

 50 52  0  0  0  0            999 V2000
   -0.8580   -2.0270   -1.4940 S   0  0
   -1.7110   -1.5140    0.0250 C   0  0
   -0.6760   -3.7950   -1.1230 C   0  0
   -2.0180   -0.0370   -0.0450 C   0  0
   -0.0080   -4.4850   -2.2830 C   0  0
   -0.9320    0.9860    0.0060 C   0  0
   -3.3010    0.3550   -0.1560 C   0  0
    0.5530   -5.6880   -2.0760 C   0  0
   -1.2640    2.3690   -0.0660 C   0  0
    0.4260    0.5860    0.1230 C   0  0
   -3.7030    1.8180   -0.2320 C   0  0
   -2.5550    2.7710   -0.1800 N   0  0
   -0.2230    3.3340   -0.0160 C   0  0
    1.4570    1.5530    0.1720 C   0  0
   -4.4570    2.0370   -1.5490 C   0  0
   -4.6370    2.1170    0.9430 C   0  0
    1.1250    2.9280    0.1040 C   0  0
    2.8500    1.1390    0.2950 C   0  0
    3.2360    0.2050    1.2790 C   0  0
    3.8120    1.6780   -0.5800 C   0  0
    2.3550   -0.3150    2.1110 O   0  0
    4.5860   -0.1800    1.3790 C   0  0
    5.1580    1.2870   -0.4750 C   0  0
    2.7810   -1.3670    2.9650 C   0  0
    5.5450    0.3590    0.5040 C   0  0
   -2.6350   -2.0800    0.1310 H   0  0
   -1.0740   -1.7190    0.8850 H   0  0
   -1.6580   -4.2330   -0.9470 H   0  0
   -0.0720   -3.9180   -0.2230 H   0  0
    0.0680   -4.1060   -3.2910 H   0  0
   -4.0780   -0.3950   -0.1910 H   0  0
    1.0600   -6.3010   -2.8070 H   0  0
    0.4800   -6.0650   -1.0660 H   0  0
    0.6760   -0.4650    0.1760 H   0  0
   -2.7720    3.7480   -0.2320 H   0  0
   -0.4450    4.3910   -0.0680 H   0  0
   -3.8260    1.8340   -2.4140 H   0  0
   -4.8090    3.0660   -1.6250 H   0  0
   -5.3260    1.3830   -1.6070 H   0  0
   -4.1410    1.9750    1.9020 H   0  0
   -5.5100    1.4650    0.9180 H   0  0
   -4.9920    3.1480    0.9020 H   0  0
    1.8980    3.6840    0.1390 H   0  0
    3.5310    2.3940   -1.3400 H   0  0
    4.8890   -0.8950    2.1310 H   0  0
    5.8950    1.7030   -1.1480 H   0  0
    1.9320   -1.6780    3.5720 H   0  0
    3.2440   -2.1390    2.3500 H   0  0
    3.5450   -0.9730    3.6370 H   0  0
    6.5780    0.0590    0.5860 H   0  0
  1  2  1  0
  1  3  1  0
  2  4  1  0
  3  5  1  0
  4  6  1  0
  4  7  2  0
  5  8  2  0
  6  9  2  0
  6 10  1  0
  7 11  1  0
  9 12  1  0
  9 13  1  0
 10 14  2  0
 11 15  1  0
 11 16  1  0
 13 17  2  0
 14 18  1  0
 18 19  2  0
 18 20  1  0
 19 21  1  0
 19 22  1  0
 20 23  2  0
 21 24  1  0
 22 25  2  0
 11 12  1  0
 14 17  1  0
 23 25  1  0
  2 26  1  0
  2 27  1  0
  3 28  1  0
  3 29  1  0
  5 30  1  0
  7 31  1  0
  8 32  1  0
  8 33  1  0
 10 34  1  0
 12 35  1  0
 13 36  1  0
 15 37  1  0
 15 38  1  0
 15 39  1  0
 16 40  1  0
 16 41  1  0
 16 42  1  0
 17 43  1  0
 20 44  1  0
 22 45  1  0
 23 46  1  0
 24 47  1  0
 24 48  1  0
 24 49  1  0
 25 50  1  0
M  END
> <Name>
CHEMBL203885

> <IC50 nM>
360

> <Molecule_ChEMBL_ID>
CHEMBL203885

> <Smiles>
C=CCSCC1=CC(C)(C)Nc2ccc(-c3ccccc3OC)cc21

$$$$
CHEMBL395717
  SciTegic08162514323D

 54 58  0  0  0  0            999 V2000
    3.0310   -0.7250   -3.1370 S   0  0
    1.6000    0.1950   -3.1820 C   0  0
    3.4260   -0.4100   -4.7680 C   0  0
    1.4450    0.7380   -4.4770 C   0  0
    0.6950    0.3730   -2.0490 C   0  0
    2.4610    0.4080   -5.3790 C   0  0
    0.3280    1.5660   -4.8340 C   0  0
    0.9650   -0.1330   -0.8240 C   0  0
   -0.5760    2.2380   -5.1230 N   0  0
    2.1680   -0.6990   -0.6870 O   0  0
    0.0120    0.0000    0.3240 C   0  0
    2.6990   -0.9340    0.5310 C   0  0
   -1.4040    0.2190    0.1910 C   0  0
    0.5980   -0.0840    1.6250 C   0  0
    1.9880   -0.6290    1.7440 C   0  0
    3.9980   -1.4860    0.5800 C   0  0
   -2.1210    0.7560    1.2990 C   0  0
   -2.1840   -0.1330   -1.0470 C   0  0
   -0.1720    0.3630    2.7380 C   0  0
    2.6500   -0.8790    2.9920 C   0  0
    4.6290   -1.7270    1.8150 C   0  0
   -3.3990    1.1910    1.1560 N   0  0
   -1.4940    0.8180    2.5670 C   0  0
   -3.4260    0.3710   -1.2090 C   0  0
   -1.6700   -1.0780   -2.1050 C   0  0
    2.0820   -0.6390    4.1820 O   0  0
    3.9610   -1.4160    3.0160 C   0  0
   -4.0650    1.2770   -0.1740 C   0  0
    2.1430   -1.6580    5.1680 C   0  0
    4.5740   -1.6390    4.1880 O   0  0
   -3.9860    2.7230   -0.6720 C   0  0
   -5.5330    0.8690   -0.0180 C   0  0
    4.3070   -0.7990   -5.2540 H   0  0
   -0.1990    0.9470   -2.2320 H   0  0
    2.5160    0.7320   -6.4160 H   0  0
    4.5160   -1.7270   -0.3380 H   0  0
    0.1970    0.3930    3.7460 H   0  0
    5.6230   -2.1470    1.8400 H   0  0
   -3.9180    1.4900    1.9610 H   0  0
   -2.0250    1.2070    3.4260 H   0  0
   -3.9860    0.1230   -2.1000 H   0  0
   -0.7580   -1.6020   -1.8180 H   0  0
   -1.4630   -0.5290   -3.0250 H   0  0
   -2.4280   -1.8300   -2.3320 H   0  0
    2.1110   -2.6250    4.6620 H   0  0
    3.0100   -1.4730    5.7990 H   0  0
    1.2520   -1.5820    5.7930 H   0  0
    5.4690   -2.0060    4.1920 H   0  0
   -2.9550    3.0530   -0.7990 H   0  0
   -4.4690    3.4000    0.0310 H   0  0
   -4.4880    2.8260   -1.6350 H   0  0
   -5.6350   -0.1560    0.3400 H   0  0
   -6.0570    0.9450   -0.9710 H   0  0
   -6.0390    1.5210    0.6950 H   0  0
  1  2  1  0
  1  3  1  0
  2  4  2  0
  2  5  1  0
  3  6  2  0
  4  7  1  0
  5  8  2  0
  7  9  3  0
  8 10  1  0
  8 11  1  0
 10 12  1  0
 11 13  2  0
 11 14  1  0
 12 15  2  0
 12 16  1  0
 13 17  1  0
 13 18  1  0
 14 19  2  0
 15 20  1  0
 16 21  2  0
 17 22  1  0
 17 23  2  0
 18 24  2  0
 18 25  1  0
 20 26  1  0
 20 27  2  0
 22 28  1  0
 26 29  1  0
 27 30  1  0
 28 31  1  0
 28 32  1  0
  4  6  1  0
 14 15  1  0
 19 23  1  0
 21 27  1  0
 24 28  1  0
  3 33  1  0
  5 34  1  0
  6 35  1  0
 16 36  1  0
 19 37  1  0
 21 38  1  0
 22 39  1  0
 23 40  1  0
 24 41  1  0
 25 42  1  0
 25 43  1  0
 25 44  1  0
 29 45  1  0
 29 46  1  0
 29 47  1  0
 30 48  1  0
 31 49  1  0
 31 50  1  0
 31 51  1  0
 32 52  1  0
 32 53  1  0
 32 54  1  0
M  END
> <Name>
CHEMBL395717

> <IC50 nM>
0.8

> <Molecule_ChEMBL_ID>
CHEMBL395717

> <Smiles>
COc1c(O)ccc2c1-c1ccc3c(c1/C(=C/c1sccc1C#N)O2)C(C)=CC(C)(C)N3

$$$$
CHEMBL211331
  SciTegic08162514323D

 53 56  0  0  1  0            999 V2000
   -4.5330   -1.1780   -0.2910 F   0  0
   -3.5840   -2.0630   -0.6020 C   0  0
   -2.2170   -1.7190   -0.4630 C   0  0
   -3.9430   -3.3480   -1.0740 C   0  0
   -1.2010   -2.6620   -0.7700 C   0  0
   -2.9410   -4.2950   -1.3790 C   0  0
   -1.5720   -3.9710   -1.1950 C   0  0
    0.2330   -2.2640   -0.6470 C   0  0  3  0  0  0
   -0.5190   -4.9830   -1.4360 C   0  0
    1.2310   -3.4450   -0.4570 C   0  0
    0.6290   -1.3770   -1.8380 C   0  0
    0.5820   -4.8440   -0.3790 C   0  0
    1.6580   -0.3110   -1.4650 C   0  0  3  0  0  0
    2.7970   -0.9590   -0.9450 O   0  0
    1.1310    0.6660   -0.4470 C   0  0
    2.0940    0.5350   -2.6620 C   0  0
   -0.0570    0.7930   -0.2660 O   0  0
    2.0240    1.4120    0.2690 N   0  0
    3.1330    1.3500   -2.2930 F   0  0
    1.0390    1.3010   -3.0880 F   0  0
    2.5000   -0.2890   -3.6800 F   0  0
    1.5820    2.2890    1.1820 C   0  0
    0.4590    3.1110    0.9000 C   0  0
    2.2360    2.4060    2.4370 C   0  0
   -0.0020    4.0390    1.8690 C   0  0
    1.7760    3.3300    3.4060 C   0  0
    0.6540    4.1430    3.1130 C   0  0
   -1.1780    4.9200    1.6110 C   0  0
    0.1230    5.1350    4.0880 C   0  0
   -1.5740    5.7560    2.5140 N   0  0
   -1.9280    4.8610    0.3050 C   0  0
    0.6210    5.2930    5.1800 O   0  0
   -0.9450    5.9220    3.8220 O   0  0
   -1.9490   -0.7290   -0.1230 H   0  0
   -4.9860   -3.6110   -1.2010 H   0  0
   -3.2230   -5.2720   -1.7460 H   0  0
    0.3200   -1.6450    0.2500 H   0  0
   -0.1050   -4.8420   -2.4380 H   0  0
   -0.9370   -5.9920   -1.3950 H   0  0
    1.9510   -3.4550   -1.2830 H   0  0
    1.8240   -3.2810    0.4470 H   0  0
    0.9880   -1.9860   -2.6680 H   0  0
   -0.2520   -0.9200   -2.2870 H   0  0
    0.1540   -4.9880    0.6170 H   0  0
    1.3420   -5.6170   -0.5040 H   0  0
    2.5780   -1.2480   -0.0470 H   0  0
    3.0060    1.3050    0.1170 H   0  0
   -0.0470    3.0310   -0.0510 H   0  0
    3.0940    1.7910    2.6720 H   0  0
    2.2810    3.4080    4.3570 H   0  0
   -2.7710    5.5530    0.3320 H   0  0
   -1.2540    5.0860   -0.5200 H   0  0
   -2.3240    3.8570    0.1500 H   0  0
  1  2  1  0
  2  3  2  0
  2  4  1  0
  3  5  1  0
  4  6  2  0
  5  7  2  0
  5  8  1  0
  7  9  1  0
  8 10  1  0
  8 11  1  0
  9 12  1  0
 11 13  1  0
 13 14  1  0
 13 15  1  0
 13 16  1  0
 15 17  2  0
 15 18  1  0
 16 19  1  0
 16 20  1  0
 16 21  1  0
 18 22  1  0
 22 23  2  0
 22 24  1  0
 23 25  1  0
 24 26  2  0
 25 27  2  0
 25 28  1  0
 27 29  1  0
 28 30  2  0
 28 31  1  0
 29 32  2  0
 29 33  1  0
  6  7  1  0
 10 12  1  0
 26 27  1  0
 30 33  1  0
  3 34  1  0
  4 35  1  0
  6 36  1  0
  8 37  1  0
  9 38  1  0
  9 39  1  0
 10 40  1  0
 10 41  1  0
 11 42  1  0
 11 43  1  0
 12 44  1  0
 12 45  1  0
 14 46  1  0
 18 47  1  0
 23 48  1  0
 24 49  1  0
 26 50  1  0
 31 51  1  0
 31 52  1  0
 31 53  1  0
M  END
> <Name>
CHEMBL211331

> <IC50 nM>
15.85

> <Molecule_ChEMBL_ID>
CHEMBL211331

> <Smiles>
Cc1noc(=O)c2ccc(NC(=O)C(O)(CC3CCCc4ccc(F)cc43)C(F)(F)F)cc12

$$$$
CHEMBL209574
  SciTegic08162514323D

 55 58  0  0  1  0            999 V2000
   -0.1970    2.7310   -3.3730 F   0  0
    0.3180    1.4610   -3.4470 C   0  0
   -0.5470    0.6560   -4.1410 F   0  0
    1.5270    1.4960   -4.0940 F   0  0
    0.5120    0.9060   -2.0350 C   0  0  3  0  0  0
    1.4530    1.7170   -1.3690 O   0  0
   -0.8280    1.0370   -1.3610 C   0  0
    1.0290   -0.5310   -2.0310 C   0  0
   -1.8540    0.9360   -1.9920 O   0  0
   -0.8650    1.2740   -0.0180 N   0  0
    1.2380   -1.0820   -0.6150 C   0  0  3  0  0  0
   -2.0450    1.3950    0.6110 C   0  0
    2.5390   -1.8090   -0.5430 C   0  0
    0.0370   -1.9410   -0.1820 C   0  0
   -2.2270    2.3930    1.6050 C   0  0
   -3.1210    0.5270    0.2850 C   0  0
    2.6000   -3.2340   -0.4690 C   0  0
    3.7440   -1.0600   -0.5570 C   0  0
    0.0920   -3.3240   -0.8360 C   0  0
   -3.4770    2.5140    2.2660 C   0  0
   -4.3670    0.6490    0.9430 C   0  0
    3.8630   -3.8830   -0.4320 C   0  0
    1.3690   -4.0680   -0.4140 C   0  0
    4.9900   -1.7210   -0.5180 C   0  0
   -4.5370    1.6470    1.9340 C   0  0
   -3.7090    3.5450    3.3180 C   0  0
    5.0570   -3.1290   -0.4590 C   0  0
    6.1700   -0.9750   -0.5350 N   0  3
   -5.8220    1.8260    2.6620 C   0  0
   -4.8560    3.6310    3.9020 N   0  0
   -2.6190    4.5060    3.7250 C   0  0
    6.0570    0.2290   -0.5860 O   0  0
    7.2290   -1.6000   -0.4980 O   0  5
   -6.7870    1.1290    2.4410 O   0  0
   -6.0020    2.7720    3.6130 O   0  0
    2.3110    1.5740   -1.8010 H   0  0
    1.9450   -0.6130   -2.6170 H   0  0
    0.3650   -1.1820   -2.6040 H   0  0
   -0.0160    1.3580    0.5040 H   0  0
    1.2830   -0.2260    0.0630 H   0  0
   -0.8980   -1.4390   -0.4340 H   0  0
    0.0370   -2.0570    0.9040 H   0  0
   -1.4160    3.0590    1.8610 H   0  0
   -3.0020   -0.2380   -0.4690 H   0  0
    3.7130    0.0200   -0.6020 H   0  0
    0.0620   -3.2210   -1.9220 H   0  0
   -0.7850   -3.9080   -0.5570 H   0  0
   -5.1780   -0.0180    0.6860 H   0  0
    3.9160   -4.9610   -0.3830 H   0  0
    1.2500   -4.4220    0.6110 H   0  0
    1.4880   -4.9570   -1.0370 H   0  0
    6.0140   -3.6310   -0.4360 H   0  0
   -3.0080    5.2210    4.4510 H   0  0
   -1.7680    3.9550    4.1210 H   0  0
   -2.2770    5.0690    2.8560 H   0  0
  1  2  1  0
  2  3  1  0
  2  4  1  0
  2  5  1  0
  5  6  1  0
  5  7  1  0
  5  8  1  0
  7  9  2  0
  7 10  1  0
  8 11  1  0
 10 12  1  0
 11 13  1  0
 11 14  1  0
 12 15  2  0
 12 16  1  0
 13 17  2  0
 13 18  1  0
 14 19  1  0
 15 20  1  0
 16 21  2  0
 17 22  1  0
 17 23  1  0
 18 24  2  0
 20 25  2  0
 20 26  1  0
 22 27  2  0
 24 28  1  0
 25 29  1  0
 26 30  2  0
 26 31  1  0
 28 32  2  0
 28 33  1  0
 29 34  2  0
 29 35  1  0
 19 23  1  0
 21 25  1  0
 24 27  1  0
 30 35  1  0
  6 36  1  0
  8 37  1  0
  8 38  1  0
 10 39  1  0
 11 40  1  0
 14 41  1  0
 14 42  1  0
 15 43  1  0
 16 44  1  0
 18 45  1  0
 19 46  1  0
 19 47  1  0
 21 48  1  0
 22 49  1  0
 23 50  1  0
 23 51  1  0
 27 52  1  0
 31 53  1  0
 31 54  1  0
 31 55  1  0
M  CHG  2  28   1  33  -1
M  END
> <Name>
CHEMBL209574

> <IC50 nM>
19.95

> <Molecule_ChEMBL_ID>
CHEMBL209574

> <Smiles>
Cc1noc(=O)c2ccc(NC(=O)C(O)(CC3CCCc4ccc([N+](=O)[O-])cc43)C(F)(F)F)cc12

$$$$
CHEMBL211387
  SciTegic08162514323D

 53 56  0  0  1  0            999 V2000
    4.3010   -5.6170   -0.3240 Cl  0  0
    4.1470   -3.9040   -0.2830 C   0  0
    2.8810   -3.2560   -0.4360 C   0  0
    5.3180   -3.1370   -0.0900 C   0  0
    2.8180   -1.8260   -0.3830 C   0  0
    1.6430   -4.0700   -0.6330 C   0  0
    5.2500   -1.7310   -0.0350 C   0  0
    4.0060   -1.0800   -0.1800 C   0  0
    1.5350   -1.0860   -0.5450 C   0  0  3  0  0  0
    0.4060   -3.2700   -1.0680 C   0  0
    0.3010   -1.9630   -0.2850 C   0  0
    1.4710   -0.4490   -1.9400 C   0  0
    0.9710    0.9960   -1.9040 C   0  0  3  0  0  0
    1.8500    1.7480   -1.0980 O   0  0
   -0.4280    1.1070   -1.3610 C   0  0
    0.9280    1.6390   -3.2910 C   0  0
   -1.3870    1.0580   -2.0980 O   0  0
   -0.5980    1.2660   -0.0160 N   0  0
    0.4200    2.9080   -3.1910 F   0  0
    0.1310    0.8890   -4.1170 F   0  0
    2.1970    1.6930   -3.8090 F   0  0
   -1.8340    1.3670    0.4960 C   0  0
   -2.1070    2.3070    1.5250 C   0  0
   -2.8790    0.5350    0.0140 C   0  0
   -3.4140    2.4080    2.0640 C   0  0
   -4.1860    0.6390    0.5490 C   0  0
   -4.4450    1.5780    1.5760 C   0  0
   -3.7420    3.3810    3.1480 C   0  0
   -5.7970    1.7340    2.1800 C   0  0
   -4.9430    3.4490    3.6170 N   0  0
   -2.6910    4.2990    3.7190 C   0  0
   -6.7400    1.0660    1.8220 O   0  0
   -6.0610    2.6250    3.1640 O   0  0
    6.2810   -3.6170    0.0190 H   0  0
    1.4220   -4.5760    0.3090 H   0  0
    1.8160   -4.8520   -1.3750 H   0  0
    6.1490   -1.1510    0.1170 H   0  0
    3.9670   -0.0020   -0.1330 H   0  0
    1.5100   -0.2760    0.1860 H   0  0
    0.4630   -3.0530   -2.1370 H   0  0
   -0.4940   -3.8710   -0.9260 H   0  0
   -0.6090   -1.4280   -0.5610 H   0  0
    0.2150   -2.1840    0.7810 H   0  0
    2.4390   -0.5100   -2.4360 H   0  0
    0.8590   -1.0530   -2.6090 H   0  0
    2.7440    1.6150   -1.4490 H   0  0
    0.1950    1.3050    0.5920 H   0  0
   -1.3180    2.9450    1.9000 H   0  0
   -2.6930   -0.1880   -0.7700 H   0  0
   -4.9730    0.0000    0.1720 H   0  0
   -3.1450    4.9730    4.4450 H   0  0
   -1.8870    3.7130    4.1620 H   0  0
   -2.2620    4.9080    2.9240 H   0  0
  1  2  1  0
  2  3  2  0
  2  4  1  0
  3  5  1  0
  3  6  1  0
  4  7  2  0
  5  8  2  0
  5  9  1  0
  6 10  1  0
  9 11  1  0
  9 12  1  0
 12 13  1  0
 13 14  1  0
 13 15  1  0
 13 16  1  0
 15 17  2  0
 15 18  1  0
 16 19  1  0
 16 20  1  0
 16 21  1  0
 18 22  1  0
 22 23  2  0
 22 24  1  0
 23 25  1  0
 24 26  2  0
 25 27  2  0
 25 28  1  0
 27 29  1  0
 28 30  2  0
 28 31  1  0
 29 32  2  0
 29 33  1  0
  7  8  1  0
 10 11  1  0
 26 27  1  0
 30 33  1  0
  4 34  1  0
  6 35  1  0
  6 36  1  0
  7 37  1  0
  8 38  1  0
  9 39  1  0
 10 40  1  0
 10 41  1  0
 11 42  1  0
 11 43  1  0
 12 44  1  0
 12 45  1  0
 14 46  1  0
 18 47  1  0
 23 48  1  0
 24 49  1  0
 26 50  1  0
 31 51  1  0
 31 52  1  0
 31 53  1  0
M  END
> <Name>
CHEMBL211387

> <IC50 nM>
5.01

> <Molecule_ChEMBL_ID>
CHEMBL211387

> <Smiles>
Cc1noc(=O)c2ccc(NC(=O)C(O)(CC3CCCc4c(Cl)cccc43)C(F)(F)F)cc12

$$$$
CHEMBL3233276
  SciTegic08162514323D

 61 64  0  0  1  0            999 V2000
   -3.8420    4.4840   -0.2680 F   0  0
   -2.9340    3.8340   -0.9900 C   0  0
   -1.9800    3.0180   -0.3570 C   0  0
   -2.9260    3.9650   -2.3910 C   0  0
   -1.0210    2.3300   -1.1210 C   0  0
   -1.9670    3.2770   -3.1540 C   0  0
   -1.0140    2.4590   -2.5250 C   0  0
   -0.0190    1.4690   -0.4390 C   0  0
   -0.1170    1.8180   -3.2520 O   0  0
   -0.6270    0.1620   -0.9530 C   0  0
   -0.1030    1.6020    1.0800 C   0  0
    1.3930    1.7130   -0.9770 C   0  0
   -0.4920    1.4060   -4.5570 C   0  0
   -0.2360   -1.0450   -0.1000 C   0  0  1  0  0  0
   -0.5510   -0.7560    1.2440 O   0  0
   -1.0450   -2.2660   -0.5270 C   0  0
    1.2560   -1.3690   -0.1820 C   0  0
   -2.4770   -2.2170   -0.0080 C   0  0
   -0.5270   -3.5570    0.1020 C   0  0
    1.9900   -0.8890    1.0530 C   0  0
   -2.9360   -3.6450   -0.2730 C   0  0
   -1.7300   -4.5020    0.1130 C   0  0
    1.8200   -1.4750    2.3340 N   0  0
    2.9220    0.1620    1.1600 C   0  0
    2.6470   -0.7770    3.1970 C   0  0
    3.2850    0.1890    2.4610 C   0  0
    2.9280   -0.8710    4.5760 C   0  0
    4.2110    1.0800    3.0720 C   0  0
    3.8150   -0.0430    5.2310 N   0  0
    4.4530    0.9340    4.4730 C   0  0
   -1.9880    2.9180    0.7190 H   0  0
   -3.6540    4.5920   -2.8830 H   0  0
   -1.9650    3.3790   -4.2290 H   0  0
   -0.3610   -0.0020   -1.9980 H   0  0
   -1.7110    0.2440   -1.0310 H   0  0
    0.0720    2.6250    1.4100 H   0  0
    0.6370    0.9630    1.5650 H   0  0
   -1.0880    1.3010    1.4400 H   0  0
    2.0470    2.1430   -0.2170 H   0  0
    1.3690    2.4000   -1.8220 H   0  0
    1.8420    0.7810   -1.3160 H   0  0
   -1.5610    1.1930   -4.5550 H   0  0
   -0.1520    2.1620   -5.2660 H   0  0
    0.0310    0.4770   -4.7830 H   0  0
   -0.6290   -1.6040    1.7090 H   0  0
   -1.0450   -2.3520   -1.6050 H   0  0
    1.7010   -0.9140   -1.0680 H   0  0
    1.4120   -2.4390   -0.3030 H   0  0
   -3.0820   -1.4880   -0.5290 H   0  0
   -2.5040   -1.9900    1.0490 H   0  0
   -0.1970   -3.3770    1.1150 H   0  0
    0.3090   -3.9670   -0.4450 H   0  0
   -3.8220   -3.9020    0.2890 H   0  0
   -3.1620   -3.7720   -1.3220 H   0  0
   -1.8570   -4.9300    1.0960 H   0  0
   -1.6040   -5.3180   -0.5820 H   0  0
    1.2250   -2.2340    2.5650 H   0  0
    3.2700    0.8090    0.3650 H   0  0
    2.4240   -1.6350    5.1520 H   0  0
    4.7170    1.8460    2.5020 H   0  0
    5.1520    1.6000    4.9570 H   0  0
  1  2  1  0
  2  3  2  0
  2  4  1  0
  3  5  1  0
  4  6  2  0
  5  7  2  0
  5  8  1  0
  7  9  1  0
  8 10  1  0
  8 11  1  0
  8 12  1  0
  9 13  1  0
 10 14  1  0
 14 15  1  0
 14 16  1  0
 14 17  1  0
 16 18  1  0
 16 19  1  0
 17 20  1  0
 18 21  1  0
 19 22  1  0
 20 23  1  0
 20 24  2  0
 23 25  1  0
 24 26  1  0
 25 27  1  0
 26 28  1  0
 27 29  2  0
 28 30  2  0
  6  7  1  0
 21 22  1  0
 25 26  2  0
 29 30  1  0
  3 31  1  0
  4 32  1  0
  6 33  1  0
 10 34  1  0
 10 35  1  0
 11 36  1  0
 11 37  1  0
 11 38  1  0
 12 39  1  0
 12 40  1  0
 12 41  1  0
 13 42  1  0
 13 43  1  0
 13 44  1  0
 15 45  1  0
 16 46  1  0
 17 47  1  0
 17 48  1  0
 18 49  1  0
 18 50  1  0
 19 51  1  0
 19 52  1  0
 21 53  1  0
 21 54  1  0
 22 55  1  0
 22 56  1  0
 23 57  1  0
 24 58  1  0
 27 59  1  0
 28 60  1  0
 30 61  1  0
M  END
> <Name>
CHEMBL3233276

> <IC50 nM>
26

> <Molecule_ChEMBL_ID>
CHEMBL3233276

> <Smiles>
COc1ccc(F)cc1C(C)(C)CC(O)(Cc1cc2ccncc2[nH]1)C1CCCC1

$$$$
CHEMBL3234858
  SciTegic08162514323D

 62 66  0  0  1  0            999 V2000
   -3.0700   -1.8190   -0.3470 O   0  0
   -2.1710   -1.3260   -0.9900 C   0  0
   -0.8720   -1.4370   -0.7100 O   0  0
   -2.4180   -0.5670   -2.1280 N   0  0
   -0.1350   -0.7140   -1.7080 C   0  0  1  0  0  0
   -1.1920   -0.1490   -2.6330 C   0  0
   -3.7290   -0.2610   -2.6950 C   0  0  1  0  0  0
    0.6650    0.3820   -1.0340 C   0  0
    0.7930   -1.6790   -2.4350 C   0  0
   -1.0390    0.5320   -3.6200 O   0  0
   -4.4620   -1.4970   -3.0750 C   0  0
   -4.5650    0.6300   -1.7770 C   0  0
    0.8030    0.5720    0.3260 O   0  0
    1.3620    1.3380   -1.6680 N   0  0
    1.7880   -2.2830   -1.5100 C   0  0
   -4.3120   -2.0370   -4.3650 C   0  0
   -5.3080   -2.1280   -2.1450 C   0  0
    1.6140    1.6840    0.4770 C   0  0
    1.9310    2.1190   -0.7570 N   0  0
    1.4490   -3.4220   -0.7570 C   0  0
    3.0690   -1.7170   -1.3860 C   0  0
   -5.0060   -3.2050   -4.7240 C   0  0
   -6.0010   -3.2970   -2.5040 C   0  0
    2.0510    2.2830    1.7580 C   0  0
    2.3900   -3.9920    0.1180 C   0  0
    4.0100   -2.2880   -0.5110 C   0  0
   -5.8510   -3.8350   -3.7940 C   0  0
    1.6380    1.7170    2.9770 C   0  0
    2.8790    3.4190    1.7580 C   0  0
    3.6700   -3.4250    0.2410 C   0  0
    2.0510    2.2840    4.1950 C   0  0
    3.2960    3.9900    2.9730 C   0  0
    1.6650    1.7530    5.3380 O   0  0
    2.8800    3.4200    4.1890 C   0  0
    4.0720    5.0550    2.9720 O   0  0
    2.1090    2.3630    6.5410 C   0  0
    4.4050    5.6380    4.2230 C   0  0
   -3.6020    0.2040   -3.6730 H   0  0
    1.3140   -1.1750   -3.2490 H   0  0
    0.2220   -2.4700   -2.9210 H   0  0
   -4.1510    1.6350   -1.6990 H   0  0
   -4.6120    0.2100   -0.7720 H   0  0
   -5.5850    0.7180   -2.1500 H   0  0
   -3.6640   -1.5570   -5.0850 H   0  0
   -5.4280   -1.7190   -1.1520 H   0  0
    0.4660   -3.8620   -0.8460 H   0  0
    3.3370   -0.8420   -1.9620 H   0  0
   -4.8900   -3.6190   -5.7150 H   0  0
   -6.6500   -3.7810   -1.7900 H   0  0
    2.1280   -4.8660    0.6960 H   0  0
    4.9940   -1.8520   -0.4170 H   0  0
   -6.3840   -4.7330   -4.0700 H   0  0
    1.0010    0.8440    2.9800 H   0  0
    3.1970    3.8560    0.8220 H   0  0
    4.3930   -3.8640    0.9130 H   0  0
    3.1990    3.8580    5.1240 H   0  0
    1.7760    1.9060    7.4720 H   0  0
    1.7760    3.4010    6.5410 H   0  0
    3.1990    2.3630    6.5410 H   0  0
    5.0760    6.4780    4.0400 H   0  0
    3.4790    5.8670    4.7500 H   0  0
    4.9490    4.8980    4.8100 H   0  0
  1  2  2  0
  2  3  1  0
  2  4  1  0
  3  5  1  0
  4  6  1  0
  4  7  1  0
  5  8  1  0
  5  9  1  0
  6 10  2  0
  7 11  1  0
  7 12  1  0
  8 13  1  0
  8 14  2  0
  9 15  1  0
 11 16  2  0
 11 17  1  0
 13 18  1  0
 14 19  1  0
 15 20  2  0
 15 21  1  0
 16 22  1  0
 17 23  2  0
 18 24  1  0
 20 25  1  0
 21 26  2  0
 22 27  2  0
 24 28  2  0
 24 29  1  0
 25 30  2  0
 28 31  1  0
 29 32  2  0
 31 33  1  0
 31 34  2  0
 32 35  1  0
 33 36  1  0
 35 37  1  0
  5  6  1  0
 18 19  2  0
 23 27  1  0
 26 30  1  0
 32 34  1  0
  7 38  1  0
  9 39  1  0
  9 40  1  0
 12 41  1  0
 12 42  1  0
 12 43  1  0
 16 44  1  0
 17 45  1  0
 20 46  1  0
 21 47  1  0
 22 48  1  0
 23 49  1  0
 25 50  1  0
 26 51  1  0
 27 52  1  0
 28 53  1  0
 29 54  1  0
 30 55  1  0
 34 56  1  0
 36 57  1  0
 36 58  1  0
 36 59  1  0
 37 60  1  0
 37 61  1  0
 37 62  1  0
M  END
> <Name>
CHEMBL3234858

> <IC50 nM>
5000

> <Molecule_ChEMBL_ID>
CHEMBL3234858

> <Smiles>
COc1cc(OC)cc(-c2nnc([C@@]3(Cc4ccccc4)OC(=O)N([C@H](C)c4ccccc4)C3=O)o2)c1

$$$$
CHEMBL4448048
  SciTegic08162514323D

 72 77  0  0  1  0            999 V2000
   -5.9960   -0.5250   -2.7910 O   0  0
   -4.9630   -0.4140   -2.1720 C   0  0
   -4.3850   -1.5720   -1.4690 C   0  0
   -4.2310    0.8970   -2.1000 C   0  0
   -3.1760   -1.5330   -0.8630 C   0  0
   -2.7170    0.6620   -2.0510 C   0  0
   -2.2810   -0.2970   -0.9120 C   0  0  2  0  0  0
   -2.6860   -2.7360   -0.0820 C   0  0
   -0.7770   -0.6850   -1.1150 C   0  0  1  0  0  0
   -2.5160    0.3850    0.4450 C   0  0
   -1.2130   -3.0620   -0.3360 C   0  0
    0.2280    0.5100   -1.1680 C   0  0  1  0  0  0
   -0.3200   -1.8240   -0.1640 C   0  0  1  0  0  0
    0.1270    1.4450   -0.0100 C   0  0
    1.6870    0.0370   -1.3710 C   0  0
    1.1350   -2.2130   -0.4940 C   0  0  1  0  0  0
   -0.1490    0.9470    1.2750 C   0  0
    0.3070    2.8260   -0.2010 C   0  0
    2.1070   -1.0350   -0.3460 C   0  0  1  0  0  0
    1.7830   -3.2810    0.3930 C   0  0
   -0.2460    1.8260    2.3670 C   0  0
    0.2110    3.7090    0.8890 C   0  0
    3.4730   -1.7500   -0.5450 C   0  0  2  0  0  0
    2.0470   -0.4920    1.0960 C   0  0
    3.2950   -3.0290    0.3010 C   0  0
   -0.0650    3.2110    2.1760 C   0  0
    4.5490   -0.9710   -0.0490 O   0  0
    3.7640   -2.0740   -1.9510 C   0  0
   -0.1580    4.0630    3.2300 N   0  0
    4.0140   -2.3300   -3.0860 C   0  0
   -0.0080    5.4180    3.1990 C   0  0
   -0.4180    3.7290    4.5270 C   0  0
    4.3300   -2.6310   -4.4810 C   0  0
   -0.1740    5.9490    4.4800 C   0  0
   -0.4360    4.8750    5.3240 C   0  0
   -4.9630   -2.4820   -1.4360 H   0  0
   -4.4870    1.5160   -2.9590 H   0  0
   -4.5550    1.4380   -1.2130 H   0  0
   -2.2110    1.6230   -1.9550 H   0  0
   -2.4010    0.2520   -3.0120 H   0  0
   -2.8260   -2.5310    0.9800 H   0  0
   -3.2950   -3.6150   -0.3030 H   0  0
   -0.7250   -1.1250   -2.1150 H   0  0
   -3.5780    0.4960    0.6660 H   0  0
   -2.0670    1.3770    0.4630 H   0  0
   -2.0680   -0.1970    1.2520 H   0  0
   -0.9010   -3.8530    0.3440 H   0  0
   -1.1040   -3.4610   -1.3460 H   0  0
   -0.0220    1.1150   -2.0370 H   0  0
   -0.3870   -1.4820    0.8710 H   0  0
    2.3810    0.8790   -1.3380 H   0  0
    1.7660   -0.3630   -2.3850 H   0  0
    1.1540   -2.5720   -1.5160 H   0  0
   -0.2890   -0.1130    1.4300 H   0  0
    0.5190    3.2150   -1.1880 H   0  0
    1.4530   -3.1740    1.4160 H   0  0
    1.5170   -4.2770    0.0720 H   0  0
   -0.4590    1.4240    3.3480 H   0  0
    0.3530    4.7680    0.7210 H   0  0
    2.9690   -0.6850    1.6430 H   0  0
    1.2280   -0.9550    1.6460 H   0  0
    1.8790    0.5860    1.0940 H   0  0
    3.6820   -2.8980    1.3030 H   0  0
    3.8160   -3.8850   -0.1090 H   0  0
    5.3420   -1.5270   -0.0720 H   0  0
    0.2070    5.9790    2.2990 H   0  0
   -0.5840    2.7130    4.8650 H   0  0
    5.3010   -3.1250   -4.5490 H   0  0
    4.3650   -1.7130   -5.0670 H   0  0
    3.5740   -3.2890   -4.9060 H   0  0
   -0.1110    6.9920    4.7600 H   0  0
   -0.6150    4.9180    6.3910 H   0  0
  1  2  2  0
  2  3  1  0
  2  4  1  0
  3  5  2  0
  4  6  1  0
  5  7  1  0
  5  8  1  0
  7  9  1  0
  7 10  1  0
  8 11  1  0
  9 12  1  0
  9 13  1  0
 12 14  1  0
 12 15  1  0
 13 16  1  0
 14 17  2  0
 14 18  1  0
 15 19  1  0
 16 20  1  0
 17 21  1  0
 18 22  2  0
 19 23  1  0
 19 24  1  0
 20 25  1  0
 21 26  2  0
 23 27  1  0
 23 28  1  0
 26 29  1  0
 28 30  3  0
 29 31  1  0
 29 32  1  0
 30 33  1  0
 31 34  2  0
 32 35  2  0
  6  7  1  0
 13 11  1  0
 16 19  1  0
 22 26  1  0
 23 25  1  0
 34 35  1  0
  3 36  1  0
  4 37  1  0
  4 38  1  0
  6 39  1  0
  6 40  1  0
  8 41  1  0
  8 42  1  0
  9 43  1  0
 10 44  1  0
 10 45  1  0
 10 46  1  0
 11 47  1  0
 11 48  1  0
 12 49  1  0
 13 50  1  0
 15 51  1  0
 15 52  1  0
 16 53  1  0
 17 54  1  0
 18 55  1  0
 20 56  1  0
 20 57  1  0
 21 58  1  0
 22 59  1  0
 24 60  1  0
 24 61  1  0
 24 62  1  0
 25 63  1  0
 25 64  1  0
 27 65  1  0
 31 66  1  0
 32 67  1  0
 33 68  1  0
 33 69  1  0
 33 70  1  0
 34 71  1  0
 35 72  1  0
M  END
> <Name>
CHEMBL4448048

> <IC50 nM>
52.2

> <Molecule_ChEMBL_ID>
CHEMBL4448048

> <Smiles>
CC#C[C@]1(O)CC[C@H]2[C@@H]3CCC4=CC(=O)CC[C@]4(C)[C@H]3[C@@H](c3ccc(-n4cccc4)cc3)C[C@@]21C

$$$$
CHEMBL302134
  SciTegic08162514323D

 55 57  0  0  0  0            999 V2000
   -0.5250    4.7580   -0.9490 S   0  0
   -1.3980    4.7400   -2.1090 O   0  0
   -1.0450    3.9880    0.1680 O   0  0
    0.8830    4.0900   -1.3880 N   0  0
   -0.2950    6.4510   -0.4240 C   0  0
    1.4080    3.0550   -0.6600 C   0  0
    0.8670    1.7480   -0.7420 C   0  0
    2.5080    3.3070    0.1840 C   0  0
    1.4400    0.7050    0.0280 C   0  0
   -0.2990    1.4730   -1.6350 C   0  0
    3.0700    2.2700    0.9420 C   0  0
    0.9430   -0.5720   -0.0250 N   0  0
    2.5370    0.9730    0.8650 C   0  0
    0.5000   -1.2640    1.1940 C   0  0
    0.8480   -1.2720   -1.3160 C   0  0
   -0.9570   -1.0820    1.4280 C   0  0
    1.6370   -2.5310   -1.3160 C   0  0
   -1.8570   -2.1070    1.0840 C   0  0
   -1.4360    0.1130    1.9910 C   0  0
    0.9790   -3.7730   -1.3160 C   0  0
    3.0410   -2.4810   -1.3160 C   0  0
   -3.2360   -1.9390    1.3050 C   0  0
   -2.8130    0.2830    2.2110 C   0  0
    1.7250   -4.9650   -1.3160 C   0  0
    3.7870   -3.6720   -1.3160 C   0  0
   -4.0800   -2.8980    0.9850 O   0  0
   -3.7110   -0.7420    1.8690 C   0  0
    3.1310   -4.9140   -1.3160 C   0  0
   -5.2750   -3.0180    1.7420 C   0  0
   -5.0020   -2.7770    3.0650 F   0  0
   -5.7810   -4.2830    1.6040 F   0  0
   -6.1930   -2.1060    1.2930 F   0  0
    1.3690    4.4340   -2.1930 H   0  0
   -1.2130    6.9530   -0.1150 H   0  0
    0.1410    7.0290   -1.2400 H   0  0
    0.4000    6.4810    0.4140 H   0  0
    2.9340    4.2970    0.2580 H   0  0
   -0.9320    2.3590   -1.6930 H   0  0
    0.0590    1.1470   -2.6110 H   0  0
   -0.8960    0.6640   -1.2130 H   0  0
    3.9120    2.4690    1.5880 H   0  0
    2.9860    0.1890    1.4590 H   0  0
    1.0570   -0.8770    2.0470 H   0  0
    0.7250   -2.3260    1.1040 H   0  0
    1.2090   -0.6150   -2.1070 H   0  0
   -0.1990   -1.4980   -1.5230 H   0  0
   -1.4920   -3.0270    0.6530 H   0  0
   -0.7480    0.9040    2.2560 H   0  0
   -0.1020   -3.8200   -1.3160 H   0  0
    3.5530   -1.5290   -1.3160 H   0  0
   -3.1820    1.2010    2.6450 H   0  0
    1.2190   -5.9200   -1.3160 H   0  0
    4.8670   -3.6330   -1.3160 H   0  0
   -4.7700   -0.6070    2.0390 H   0  0
    3.7030   -5.8300   -1.3160 H   0  0
  1  2  2  0
  1  3  2  0
  1  4  1  0
  1  5  1  0
  4  6  1  0
  6  7  2  0
  6  8  1  0
  7  9  1  0
  7 10  1  0
  8 11  2  0
  9 12  1  0
  9 13  2  0
 12 14  1  0
 12 15  1  0
 14 16  1  0
 15 17  1  0
 16 18  2  0
 16 19  1  0
 17 20  2  0
 17 21  1  0
 18 22  1  0
 19 23  2  0
 20 24  1  0
 21 25  2  0
 22 26  1  0
 22 27  2  0
 24 28  2  0
 26 29  1  0
 29 30  1  0
 29 31  1  0
 29 32  1  0
 11 13  1  0
 23 27  1  0
 25 28  1  0
  4 33  1  0
  5 34  1  0
  5 35  1  0
  5 36  1  0
  8 37  1  0
 10 38  1  0
 10 39  1  0
 10 40  1  0
 11 41  1  0
 13 42  1  0
 14 43  1  0
 14 44  1  0
 15 45  1  0
 15 46  1  0
 18 47  1  0
 19 48  1  0
 20 49  1  0
 21 50  1  0
 23 51  1  0
 24 52  1  0
 25 53  1  0
 27 54  1  0
 28 55  1  0
M  END
> <Name>
CHEMBL302134

> <IC50 nM>
220

> <Molecule_ChEMBL_ID>
CHEMBL302134

> <Smiles>
Cc1c(NS(C)(=O)=O)cccc1N(Cc1ccccc1)Cc1cccc(OC(F)(F)F)c1

$$$$
CHEMBL70503
  SciTegic08162514323D

 55 57  0  0  0  0            999 V2000
    2.5900    4.3670    0.7830 S   0  0
    1.6950    4.6680    1.8890 O   0  0
    3.8360    5.1120    0.8380 O   0  0
    2.9590    2.7930    0.8670 N   0  0
    1.7580    4.7480   -0.7540 C   0  0
    2.2890    1.8890    0.0840 C   0  0
    1.0490    1.3500    0.4960 C   0  0
    2.8520    1.4980   -1.1460 C   0  0
    0.5180    1.7130    1.6510 O   0  0
    0.3830    0.4200   -0.3320 C   0  0
    2.1840    0.5740   -1.9670 C   0  0
   -0.5900    2.6020    1.6250 C   0  0
   -0.8200   -0.1190    0.0430 N   0  0
    0.9530    0.0370   -1.5600 C   0  0
   -0.9490    3.0120    3.0530 C   0  0
   -0.9610   -0.8460    1.3130 C   0  0
   -1.9960    0.0260   -0.8280 C   0  0
   -0.1720   -2.1050    1.3130 C   0  0
   -2.2790   -1.2260   -1.5760 C   0  0
   -0.8300   -3.3480    1.3130 C   0  0
    1.2340   -2.0550    1.3130 C   0  0
   -1.8790   -1.3510   -2.9200 C   0  0
   -2.9490   -2.2890   -0.9410 C   0  0
   -0.0820   -4.5390    1.3130 C   0  0
    1.9800   -3.2460    1.3130 C   0  0
   -2.1490   -2.5370   -3.6270 C   0  0
   -3.2190   -3.4730   -1.6500 C   0  0
    1.3220   -4.4880    1.3130 C   0  0
   -2.8180   -3.5980   -2.9920 C   0  0
    3.6740    2.4810    1.4920 H   0  0
    1.4280    5.7830   -0.8400 H   0  0
    0.8810    4.1100   -0.8590 H   0  0
    2.4260    4.5410   -1.5900 H   0  0
    3.7990    1.9030   -1.4780 H   0  0
    2.6190    0.2770   -2.9100 H   0  0
   -0.3150    3.4730    1.0310 H   0  0
   -1.4260    2.0880    1.1510 H   0  0
    0.4570   -0.6740   -2.2070 H   0  0
   -1.7620    3.7380    3.0530 H   0  0
   -1.2480    2.1430    3.6410 H   0  0
   -0.0940    3.4690    3.5490 H   0  0
   -2.0140   -1.0760    1.4790 H   0  0
   -0.6270   -0.2070    2.1310 H   0  0
   -1.8200    0.8380   -1.5350 H   0  0
   -2.8610    0.2910   -0.2220 H   0  0
   -1.9080   -3.3940    1.3130 H   0  0
    1.7460   -1.1030    1.3130 H   0  0
   -1.3650   -0.5390   -3.4120 H   0  0
   -3.2600   -2.1990    0.0880 H   0  0
   -0.5880   -5.4940    1.3130 H   0  0
    3.0590   -3.2070    1.3130 H   0  0
   -1.8420   -2.6310   -4.6560 H   0  0
   -3.7330   -4.2890   -1.1620 H   0  0
    1.8940   -5.4040    1.3130 H   0  0
   -3.0260   -4.5080   -3.5350 H   0  0
  1  2  2  0
  1  3  2  0
  1  4  1  0
  1  5  1  0
  4  6  1  0
  6  7  2  0
  6  8  1  0
  7  9  1  0
  7 10  1  0
  8 11  2  0
  9 12  1  0
 10 13  1  0
 10 14  2  0
 12 15  1  0
 13 16  1  0
 13 17  1  0
 16 18  1  0
 17 19  1  0
 18 20  2  0
 18 21  1  0
 19 22  2  0
 19 23  1  0
 20 24  1  0
 21 25  2  0
 22 26  1  0
 23 27  2  0
 24 28  2  0
 26 29  2  0
 11 14  1  0
 25 28  1  0
 27 29  1  0
  4 30  1  0
  5 31  1  0
  5 32  1  0
  5 33  1  0
  8 34  1  0
 11 35  1  0
 12 36  1  0
 12 37  1  0
 14 38  1  0
 15 39  1  0
 15 40  1  0
 15 41  1  0
 16 42  1  0
 16 43  1  0
 17 44  1  0
 17 45  1  0
 20 46  1  0
 21 47  1  0
 22 48  1  0
 23 49  1  0
 24 50  1  0
 25 51  1  0
 26 52  1  0
 27 53  1  0
 28 54  1  0
 29 55  1  0
M  END
> <Name>
CHEMBL70503

> <IC50 nM>
850

> <Molecule_ChEMBL_ID>
CHEMBL70503

> <Smiles>
CCOc1c(NS(C)(=O)=O)cccc1N(Cc1ccccc1)Cc1ccccc1

$$$$
CHEMBL71870
  SciTegic08162514323D

 51 53  0  0  0  0            999 V2000
    0.9900    3.7440    1.8420 Br  0  0
   -0.8650    3.4320    1.6820 C   0  0
   -1.4080    2.1290    1.7720 C   0  0
   -1.7230    4.5290    1.4690 C   0  0
   -2.7970    1.9390    1.6480 C   0  0
   -0.5450    0.9350    1.9960 C   0  0
   -3.1070    4.3320    1.3440 C   0  0
   -3.6450    3.0390    1.4360 C   0  0
   -0.8570   -0.1450    1.0490 N   0  0
   -0.5180   -0.0410   -0.2770 C   0  0
   -1.5450   -1.3460    1.5410 C   0  0
    0.8360   -0.0370   -0.6910 C   0  0
   -1.5450    0.0600   -1.2340 C   0  0
   -0.5800   -2.4260    1.8830 C   0  0
    1.1450    0.0700   -2.0680 C   0  0
    1.9340   -0.1450    0.3200 C   0  0
   -1.2320    0.1660   -2.6000 C   0  0
   -0.3890   -3.5040    1.0000 C   0  0
    0.1410   -2.3690    3.0880 C   0  0
    2.4450    0.0780   -2.5100 N   0  0
    0.1070    0.1720   -3.0160 C   0  0
    0.5220   -4.5240    1.3220 C   0  0
    1.0510   -3.3910    3.4100 C   0  0
    2.7850   -0.3280   -4.0410 S   0  0
    1.2420   -4.4670    2.5270 C   0  0
    4.1620   -0.7870   -4.0760 O   0  0
    1.8320   -1.3480   -4.4430 O   0  0
    2.6170    1.0820   -5.1270 C   0  0
   -1.3300    5.5350    1.3970 H   0  0
   -3.2190    0.9490    1.7170 H   0  0
    0.5020    1.2190    1.8830 H   0  0
   -0.6840    0.5720    3.0140 H   0  0
   -3.7620    5.1760    1.1800 H   0  0
   -4.7090    2.8870    1.3400 H   0  0
   -2.2340   -1.7030    0.7750 H   0  0
   -2.1290   -1.0880    2.4240 H   0  0
   -2.5840    0.0590   -0.9380 H   0  0
    1.5390   -0.5780    1.2380 H   0  0
    2.7580   -0.7230   -0.0980 H   0  0
    2.3090    0.8510    0.5550 H   0  0
   -2.0230    0.2440   -3.3280 H   0  0
   -0.9390   -3.5530    0.0700 H   0  0
   -0.0020   -1.5450    3.7720 H   0  0
    3.1840    0.3340   -1.8850 H   0  0
    0.3240    0.2540   -4.0720 H   0  0
    0.6680   -5.3520    0.6450 H   0  0
    1.6060   -3.3480    4.3380 H   0  0
    1.9410   -5.2520    2.7770 H   0  0
    2.7910    0.8590   -6.1820 H   0  0
    3.3260    1.8550   -4.8300 H   0  0
    1.6130    1.4960   -5.0350 H   0  0
  1  2  1  0
  2  3  2  0
  2  4  1  0
  3  5  1  0
  3  6  1  0
  4  7  2  0
  5  8  2  0
  6  9  1  0
  9 10  1  0
  9 11  1  0
 10 12  2  0
 10 13  1  0
 11 14  1  0
 12 15  1  0
 12 16  1  0
 13 17  2  0
 14 18  2  0
 14 19  1  0
 15 20  1  0
 15 21  2  0
 18 22  1  0
 19 23  2  0
 20 24  1  0
 22 25  2  0
 24 26  2  0
 24 27  2  0
 24 28  1  0
  7  8  1  0
 17 21  1  0
 23 25  1  0
  4 29  1  0
  5 30  1  0
  6 31  1  0
  6 32  1  0
  7 33  1  0
  8 34  1  0
 11 35  1  0
 11 36  1  0
 13 37  1  0
 16 38  1  0
 16 39  1  0
 16 40  1  0
 17 41  1  0
 18 42  1  0
 19 43  1  0
 20 44  1  0
 21 45  1  0
 22 46  1  0
 23 47  1  0
 25 48  1  0
 28 49  1  0
 28 50  1  0
 28 51  1  0
M  END
> <Name>
CHEMBL71870

> <IC50 nM>
96

> <Molecule_ChEMBL_ID>
CHEMBL71870

> <Smiles>
Cc1c(NS(C)(=O)=O)cccc1N(Cc1ccccc1)Cc1ccccc1Br

$$$$
CHEMBL304843
  SciTegic08162514323D

 57 59  0  0  0  0            999 V2000
   -0.6820   -1.4780    3.3500 S   0  0
   -0.6050   -0.2280    4.0840 O   0  0
   -2.0430   -1.9140    3.1000 O   0  0
    0.0270   -1.2440    1.9120 N   0  0
    0.1680   -2.7480    4.2810 C   0  0
   -0.4710   -0.3030    1.0470 C   0  0
   -0.5700   -3.0370    5.5900 C   0  0
    1.6310   -2.3610    4.5040 C   0  0
    0.1190   -0.0840   -0.2210 C   0  0
   -1.5920    0.4550    1.4400 C   0  0
   -0.4240    0.8990   -1.0840 C   0  0
    1.3090   -0.8830   -0.6440 C   0  0
   -2.1250    1.4260    0.5800 C   0  0
    0.1190    1.1390   -2.3200 N   0  0
   -1.5450    1.6470   -0.6780 C   0  0
   -0.6700    0.9450   -3.5470 C   0  0
    1.5120    1.5980   -2.4350 C   0  0
   -1.3650   -0.3690   -3.5470 C   0  0
    1.8460    2.5940   -1.3830 C   0  0
   -2.7720   -0.4220   -3.5470 C   0  0
   -0.6190   -1.5610   -3.5470 C   0  0
    3.0410    2.4730   -0.6520 C   0  0
    0.9670    3.6600   -1.1190 C   0  0
   -3.4280   -1.6640   -3.5470 C   0  0
   -1.2770   -2.8030   -3.5470 C   0  0
    3.3570    3.4140    0.3420 C   0  0
    1.2850    4.6020   -0.1250 C   0  0
   -2.6820   -2.8530   -3.5470 C   0  0
    2.4810    4.4790    0.6060 C   0  0
    0.8280   -1.7850    1.6540 H   0  0
    0.0920   -3.5960    3.6020 H   0  0
   -0.0880   -3.8280    6.1620 H   0  0
   -1.5980   -3.3460    5.3930 H   0  0
   -0.6050   -2.1460    6.2170 H   0  0
    2.1520   -3.1370    5.0670 H   0  0
    2.1390   -2.2110    3.5510 H   0  0
    1.7030   -1.4340    5.0690 H   0  0
   -2.0550    0.3010    2.4050 H   0  0
    1.3770   -1.8670   -0.1810 H   0  0
    2.2210   -0.3360   -0.4020 H   0  0
    1.2850   -1.0250   -1.7260 H   0  0
   -2.9840    2.0040    0.8870 H   0  0
   -1.9750    2.4000   -1.3240 H   0  0
   -0.0100    1.0060   -4.4120 H   0  0
   -1.4040    1.7440   -3.6310 H   0  0
    1.6620    2.0430   -3.4180 H   0  0
    2.1800    0.7420   -2.3490 H   0  0
   -3.3500    0.4900   -3.5470 H   0  0
    0.4610   -1.5290   -3.5470 H   0  0
    3.7210    1.6560   -0.8510 H   0  0
    0.0470    3.7620   -1.6760 H   0  0
   -4.5080   -1.7030   -3.5470 H   0  0
   -0.7030   -3.7190   -3.5470 H   0  0
    4.2750    3.3200    0.9030 H   0  0
    0.6090    5.4200    0.0780 H   0  0
   -3.1880   -3.8090   -3.5470 H   0  0
    2.7230    5.2030    1.3690 H   0  0
  1  2  2  0
  1  3  2  0
  1  4  1  0
  1  5  1  0
  4  6  1  0
  5  7  1  0
  5  8  1  0
  6  9  2  0
  6 10  1  0
  9 11  1  0
  9 12  1  0
 10 13  2  0
 11 14  1  0
 11 15  2  0
 14 16  1  0
 14 17  1  0
 16 18  1  0
 17 19  1  0
 18 20  2  0
 18 21  1  0
 19 22  2  0
 19 23  1  0
 20 24  1  0
 21 25  2  0
 22 26  1  0
 23 27  2  0
 24 28  2  0
 26 29  2  0
 13 15  1  0
 25 28  1  0
 27 29  1  0
  4 30  1  0
  5 31  1  0
  7 32  1  0
  7 33  1  0
  7 34  1  0
  8 35  1  0
  8 36  1  0
  8 37  1  0
 10 38  1  0
 12 39  1  0
 12 40  1  0
 12 41  1  0
 13 42  1  0
 15 43  1  0
 16 44  1  0
 16 45  1  0
 17 46  1  0
 17 47  1  0
 20 48  1  0
 21 49  1  0
 22 50  1  0
 23 51  1  0
 24 52  1  0
 25 53  1  0
 26 54  1  0
 27 55  1  0
 28 56  1  0
 29 57  1  0
M  END
> <Name>
CHEMBL304843

> <IC50 nM>
320

> <Molecule_ChEMBL_ID>
CHEMBL304843

> <Smiles>
Cc1c(NS(=O)(=O)C(C)C)cccc1N(Cc1ccccc1)Cc1ccccc1

$$$$
CHEMBL69389
  SciTegic08162514323D

 54 56  0  0  0  0            999 V2000
   -2.1350   -2.8980   -3.2210 S   0  0
   -1.5000   -3.8830   -4.0780 O   0  0
   -2.8810   -3.4920   -2.1250 O   0  0
   -0.9630   -1.9880   -2.5740 N   0  0
   -3.2480   -1.9060   -4.2070 C   0  0
   -1.1850   -1.3140   -1.3980 C   0  0
   -0.1110   -0.8870   -0.5800 C   0  0
   -2.5120   -1.0530   -1.0080 C   0  0
   -0.3830   -0.1950    0.6250 C   0  0
    1.3010   -1.1620   -0.9880 C   0  0
   -2.7750   -0.3670    0.1880 C   0  0
    0.6310    0.2360    1.4440 N   0  0
   -1.7150    0.0610    1.0020 C   0  0
    1.5940    1.2500    0.9870 C   0  0
    0.7680   -0.3160    2.7970 C   0  0
    0.9060    2.4260    0.3930 C   0  0
    1.5570   -1.5760    2.7970 C   0  0
    0.7830    2.5390   -1.0040 C   0  0
    0.3790    3.4300    1.2250 C   0  0
    0.9010   -2.8200    2.7970 C   0  0
    2.9630   -1.5270    2.7970 C   0  0
    0.1350    3.6520   -1.5660 C   0  0
   -0.2690    4.5430    0.6620 C   0  0
    1.6470   -4.0120    2.7970 C   0  0
    3.7090   -2.7190    2.7970 C   0  0
   -0.3920    4.6560   -0.7320 C   0  0
    3.0510   -3.9590    2.7970 C   0  0
   -1.0780    5.8320   -1.3280 C   0  0
   -1.5040    6.6660   -0.3260 F   0  0
   -2.1580    5.4100   -2.0600 F   0  0
   -0.2070    6.5060   -2.1440 F   0  0
   -0.0760   -1.9140   -3.0310 H   0  0
   -4.0700   -2.4630   -4.6520 H   0  0
   -2.6910   -1.4300   -5.0140 H   0  0
   -3.6760   -1.1170   -3.5880 H   0  0
   -3.3460   -1.3710   -1.6190 H   0  0
    1.6540   -0.3630   -1.6400 H   0  0
    1.9180   -1.2850   -0.0990 H   0  0
    1.3420   -2.0940   -1.5530 H   0  0
   -3.7950   -0.1680    0.4830 H   0  0
   -1.9410    0.5860    1.9200 H   0  0
    2.2580    0.8050    0.2460 H   0  0
    2.2010    1.5720    1.8300 H   0  0
   -0.2230   -0.5100    3.2070 H   0  0
    1.2560    0.4180    3.4380 H   0  0
    1.1860    1.7730   -1.6500 H   0  0
    0.4710    3.3500    2.2990 H   0  0
   -0.1800   -2.8650    2.7970 H   0  0
    3.4750   -0.5760    2.7970 H   0  0
    0.0430    3.7320   -2.6380 H   0  0
   -0.6720    5.3090    1.3090 H   0  0
    1.1410   -4.9650    2.7970 H   0  0
    4.7890   -2.6800    2.7970 H   0  0
    3.6250   -4.8750    2.7970 H   0  0
  1  2  2  0
  1  3  2  0
  1  4  1  0
  1  5  1  0
  4  6  1  0
  6  7  2  0
  6  8  1  0
  7  9  1  0
  7 10  1  0
  8 11  2  0
  9 12  1  0
  9 13  2  0
 12 14  1  0
 12 15  1  0
 14 16  1  0
 15 17  1  0
 16 18  2  0
 16 19  1  0
 17 20  2  0
 17 21  1  0
 18 22  1  0
 19 23  2  0
 20 24  1  0
 21 25  2  0
 22 26  2  0
 24 27  2  0
 26 28  1  0
 28 29  1  0
 28 30  1  0
 28 31  1  0
 11 13  1  0
 23 26  1  0
 25 27  1  0
  4 32  1  0
  5 33  1  0
  5 34  1  0
  5 35  1  0
  8 36  1  0
 10 37  1  0
 10 38  1  0
 10 39  1  0
 11 40  1  0
 13 41  1  0
 14 42  1  0
 14 43  1  0
 15 44  1  0
 15 45  1  0
 18 46  1  0
 19 47  1  0
 20 48  1  0
 21 49  1  0
 22 50  1  0
 23 51  1  0
 24 52  1  0
 25 53  1  0
 27 54  1  0
M  END
> <Name>
CHEMBL69389

> <IC50 nM>
370

> <Molecule_ChEMBL_ID>
CHEMBL69389

> <Smiles>
Cc1c(NS(C)(=O)=O)cccc1N(Cc1ccccc1)Cc1ccc(C(F)(F)F)cc1

$$$$
CHEMBL302758
  SciTegic08162514323D

 52 54  0  0  0  0            999 V2000
   -3.1150   -0.8320   -2.0100 S   0  0
   -4.0290   -0.1130   -1.1390 O   0  0
   -2.1660    0.0350   -2.6840 O   0  0
   -2.2700   -1.8590   -1.0860 N   0  0
   -4.0670   -1.7130   -3.2420 C   0  0
   -0.9550   -1.5920   -0.7910 C   0  0
   -0.5780   -0.4040   -0.1230 C   0  0
    0.0270   -2.5270   -1.1680 C   0  0
    0.7870   -0.1640    0.1640 C   0  0
   -1.6170    0.5960    0.2790 C   0  0
    1.3810   -2.2850   -0.8810 C   0  0
    1.1890    0.9770    0.8120 N   0  0
    1.7600   -1.1090   -0.2170 C   0  0
    1.1680    1.0620    2.2790 C   0  0
    1.6540    2.1370    0.0370 C   0  0
    1.7250   -0.1720    2.9100 C   0  0
    0.7380    2.4390   -1.0960 C   0  0
    0.8750   -1.1700    3.4470 C   0  0
    3.1230   -0.3440    2.9710 C   0  0
    0.9080    1.7890   -2.3300 C   0  0
   -0.2970    3.3750   -0.9320 C   0  0
   -0.5570   -0.9940    3.3830 C   0  0
    1.4260   -2.3260    4.0390 C   0  0
    3.6620   -1.4980    3.5610 C   0  0
    0.0450    2.0760   -3.4000 C   0  0
   -1.1620    3.6600   -2.0020 C   0  0
   -1.7110   -0.8560    3.3340 N   0  0
    2.8160   -2.4790    4.0900 C   0  0
   -0.9920    3.0120   -3.2360 C   0  0
   -2.7030   -2.6880   -0.7320 H   0  0
   -4.6580   -1.0720   -3.8950 H   0  0
   -4.7480   -2.4060   -2.7480 H   0  0
   -3.3950   -2.2990   -3.8690 H   0  0
   -0.2400   -3.4410   -1.6800 H   0  0
   -1.8910    1.2030   -0.5820 H   0  0
   -2.4710    0.0760    0.7170 H   0  0
   -1.2070    1.2600    1.0410 H   0  0
    2.1310   -3.0060   -1.1720 H   0  0
    2.8070   -0.9430   -0.0060 H   0  0
    0.1420    1.2110    2.6130 H   0  0
    1.7520    1.9280    2.5960 H   0  0
    2.6540    1.9340   -0.3480 H   0  0
    1.7190    3.0040    0.6930 H   0  0
    3.7680    0.4260    2.5570 H   0  0
    1.7030    1.0680   -2.4630 H   0  0
   -0.4340    3.8790    0.0160 H   0  0
    0.7850   -3.0800    4.4450 H   0  0
    4.7250   -1.6070    3.5980 H   0  0
    0.1760    1.5760   -4.3500 H   0  0
   -1.9590    4.3810   -1.8770 H   0  0
    3.2360   -3.3520    4.5350 H   0  0
   -1.6560    3.2300   -4.0590 H   0  0
  1  2  2  0
  1  3  2  0
  1  4  1  0
  1  5  1  0
  4  6  1  0
  6  7  2  0
  6  8  1  0
  7  9  1  0
  7 10  1  0
  8 11  2  0
  9 12  1  0
  9 13  2  0
 12 14  1  0
 12 15  1  0
 14 16  1  0
 15 17  1  0
 16 18  2  0
 16 19  1  0
 17 20  2  0
 17 21  1  0
 18 22  1  0
 18 23  1  0
 19 24  2  0
 20 25  1  0
 21 26  2  0
 22 27  3  0
 23 28  2  0
 25 29  2  0
 11 13  1  0
 24 28  1  0
 26 29  1  0
  4 30  1  0
  5 31  1  0
  5 32  1  0
  5 33  1  0
  8 34  1  0
 10 35  1  0
 10 36  1  0
 10 37  1  0
 11 38  1  0
 13 39  1  0
 14 40  1  0
 14 41  1  0
 15 42  1  0
 15 43  1  0
 19 44  1  0
 20 45  1  0
 21 46  1  0
 23 47  1  0
 24 48  1  0
 25 49  1  0
 26 50  1  0
 28 51  1  0
 29 52  1  0
M  END
> <Name>
CHEMBL302758

> <IC50 nM>
60

> <Molecule_ChEMBL_ID>
CHEMBL302758

> <Smiles>
Cc1c(NS(C)(=O)=O)cccc1N(Cc1ccccc1)Cc1ccccc1C#N

$$$$
CHEMBL3263751
  SciTegic08162514323D

 58 61  0  0  1  0            999 V2000
    5.9180    2.8730   -3.2600 O   0  0
    5.8260    1.9020   -2.5470 C   0  0
    6.8360    1.0780   -2.2830 O   0  0
    4.5290    1.5490   -1.8950 C   0  0
    4.4360    0.4120   -1.0640 C   0  0
    3.3990    2.3580   -2.1090 C   0  0
    5.4860   -0.3550   -0.8530 O   0  0
    3.2070    0.0940   -0.4570 C   0  0
    2.1740    2.0350   -1.5000 C   0  0
    5.3260   -1.4860   -0.0100 C   0  0
    2.0760    0.9020   -0.6740 C   0  0
    6.6580   -2.2300    0.1000 C   0  0
    0.7750    0.5590   -0.0250 C   0  0
   -0.3220    1.2150   -0.1430 N   0  0
    0.5630   -0.6330    0.8770 C   0  0
   -1.2580    0.7400    0.4820 N   0  0
   -0.9100   -0.4690    1.2230 C   0  0  1  0  0  0
   -2.5060    1.3010    0.4880 C   0  0
   -1.7210   -1.6910    0.7970 C   0  0
   -3.0200    1.8950   -0.6800 C   0  0
   -3.2850    1.2850    1.6700 C   0  0
   -3.1520   -1.6440    1.3150 C   0  0
   -1.2030   -2.9820    1.4260 C   0  0
   -4.3030    2.4750   -0.6890 C   0  0
   -4.5640    1.8610    1.6680 C   0  0
   -3.6110   -3.0720    1.0510 C   0  0
   -2.4060   -3.9280    1.4360 C   0  0
   -5.0760    2.4530    0.5040 C   0  0
   -4.8160    3.0940   -1.9390 C   0  0
   -6.3870    3.0430    0.5080 C   0  0
   -7.4470    3.5200    0.5100 N   0  0
    7.7010    1.2500   -2.6760 H   0  0
    3.4650    3.2310   -2.7440 H   0  0
    3.1390   -0.7770    0.1780 H   0  0
    1.3130    2.6620   -1.6740 H   0  0
    5.0000   -1.1370    0.9710 H   0  0
    4.5590   -2.1290   -0.4390 H   0  0
    6.5610   -3.1000    0.7520 H   0  0
    6.9960   -2.5610   -0.8830 H   0  0
    7.4280   -1.5860    0.5200 H   0  0
    0.7810   -1.5530    0.3500 H   0  0
    1.1970   -0.5700    1.7500 H   0  0
   -1.0310   -0.2930    2.2830 H   0  0
   -1.7190   -1.7770   -0.2810 H   0  0
   -2.4320    1.9140   -1.5940 H   0  0
   -2.9080    0.8360    2.5660 H   0  0
   -3.7580   -0.9160    0.7950 H   0  0
   -3.1800   -1.4180    2.3730 H   0  0
   -0.8730   -2.8050    2.4400 H   0  0
   -0.3690   -3.3950    0.8770 H   0  0
   -5.1430    1.8400    2.5740 H   0  0
   -4.4980   -3.3280    1.6110 H   0  0
   -3.8380   -3.1990    0.0020 H   0  0
   -2.5350   -4.3550    2.4200 H   0  0
   -2.2790   -4.7460    0.7420 H   0  0
   -5.8160    3.5180   -1.8520 H   0  0
   -4.8400    2.3480   -2.7320 H   0  0
   -4.1450    3.8930   -2.2540 H   0  0
  1  2  2  0
  2  3  1  0
  2  4  1  0
  4  5  2  0
  4  6  1  0
  5  7  1  0
  5  8  1  0
  6  9  2  0
  7 10  1  0
  8 11  2  0
 10 12  1  0
 11 13  1  0
 13 14  2  0
 13 15  1  0
 14 16  1  0
 15 17  1  0
 16 18  1  0
 17 19  1  0
 18 20  2  0
 18 21  1  0
 19 22  1  0
 19 23  1  0
 20 24  1  0
 21 25  2  0
 22 26  1  0
 23 27  1  0
 24 28  2  0
 24 29  1  0
 28 30  1  0
 30 31  3  0
  9 11  1  0
 16 17  1  0
 25 28  1  0
 26 27  1  0
  3 32  1  0
  6 33  1  0
  8 34  1  0
  9 35  1  0
 10 36  1  0
 10 37  1  0
 12 38  1  0
 12 39  1  0
 12 40  1  0
 15 41  1  0
 15 42  1  0
 17 43  1  0
 19 44  1  0
 20 45  1  0
 21 46  1  0
 22 47  1  0
 22 48  1  0
 23 49  1  0
 23 50  1  0
 25 51  1  0
 26 52  1  0
 26 53  1  0
 27 54  1  0
 27 55  1  0
 29 56  1  0
 29 57  1  0
 29 58  1  0
M  END
> <Name>
CHEMBL3263751

> <IC50 nM>
10000

> <Molecule_ChEMBL_ID>
CHEMBL3263751

> <Smiles>
CCOc1cc(C2=NN(c3ccc(C#N)c(C)c3)[C@@H](C3CCCC3)C2)ccc1C(=O)O

$$$$
CHEMBL3263760
  SciTegic08162514323D

 55 58  0  0  1  0            999 V2000
   -2.7810   -0.0900    6.8890 O   0  0
   -3.1800   -0.6780    5.9100 C   0  0
   -4.3380   -1.3990    5.9630 N   0  0
   -2.4200   -0.6290    4.6250 C   0  0
   -1.2170    0.1030    4.5230 C   0  0
   -2.9040   -1.3200    3.4980 C   0  0
   -0.7480    0.7560    5.5680 O   0  0
   -0.5200    0.1480    3.3500 N   0  0
   -2.1760   -1.2640    2.2990 C   0  0
    0.4770    1.4590    5.4200 C   0  0
   -0.9810   -0.5180    2.2520 C   0  0
   -0.1990   -0.4510    0.9800 C   0  0
   -0.5100   -1.0240   -0.1270 N   0  0
    1.0900    0.3160    0.8140 C   0  0
    0.2870   -0.8260   -1.0310 N   0  0
    1.4100    0.0230   -0.6450 C   0  0  1  0  0  0
    0.1330   -1.3580   -2.2830 C   0  0
    1.5020    1.3090   -1.4590 C   0  0
    1.2270   -1.4100   -3.1680 C   0  0
   -1.1270   -1.8580   -2.6940 C   0  0
    2.6040    2.2280   -0.9430 C   0  0
    0.2320    2.1600   -1.3690 C   0  0
    1.0840   -1.9550   -4.4590 C   0  0
   -1.2770   -2.4000   -3.9770 C   0  0
    2.1970    3.5590   -1.5630 C   0  0
    0.7090    3.6070   -1.2460 C   0  0
   -0.1880   -2.4530   -4.8600 C   0  0
    2.2580   -1.9960   -5.3710 C   0  0
   -0.3460   -3.0100   -6.1740 C   0  0
   -0.4750   -3.4610   -7.2380 N   0  0
   -4.8830   -1.4610    6.7990 H   0  0
   -4.6660   -1.8830    5.1520 H   0  0
   -3.8220   -1.8890    3.5490 H   0  0
   -2.5350   -1.7870    1.4260 H   0  0
    0.6760    2.0000    6.3460 H   0  0
    1.2420    0.7500    5.1020 H   0  0
    0.3530    2.1950    4.6250 H   0  0
    0.9370    1.3670    1.0170 H   0  0
    1.8500   -0.0630    1.4820 H   0  0
    2.3320   -0.5370   -0.7250 H   0  0
    1.6990    1.0640   -2.4960 H   0  0
    2.1990   -1.0290   -2.8670 H   0  0
   -1.9690   -1.8240   -2.0290 H   0  0
    3.5880    1.9120   -1.2600 H   0  0
    2.6000    2.2910    0.1370 H   0  0
   -0.3730    1.8940   -0.5140 H   0  0
   -0.3790    2.0190   -2.2500 H   0  0
   -2.2400   -2.7770   -4.2720 H   0  0
    2.3630    3.5490   -2.6310 H   0  0
    2.7360    4.3950   -1.1430 H   0  0
    0.1740    4.2730   -1.9080 H   0  0
    0.5570    3.9610   -0.2340 H   0  0
    2.0530   -2.4340   -6.3480 H   0  0
    3.0570   -2.5740   -4.9080 H   0  0
    2.6290   -0.9830   -5.5310 H   0  0
  1  2  2  0
  2  3  1  0
  2  4  1  0
  4  5  2  0
  4  6  1  0
  5  7  1  0
  5  8  1  0
  6  9  2  0
  7 10  1  0
  8 11  2  0
 11 12  1  0
 12 13  2  0
 12 14  1  0
 13 15  1  0
 14 16  1  0
 15 17  1  0
 16 18  1  0
 17 19  2  0
 17 20  1  0
 18 21  1  0
 18 22  1  0
 19 23  1  0
 20 24  2  0
 21 25  1  0
 22 26  1  0
 23 27  2  0
 23 28  1  0
 27 29  1  0
 29 30  3  0
  9 11  1  0
 15 16  1  0
 24 27  1  0
 25 26  1  0
  3 31  1  0
  3 32  1  0
  6 33  1  0
  9 34  1  0
 10 35  1  0
 10 36  1  0
 10 37  1  0
 14 38  1  0
 14 39  1  0
 16 40  1  0
 18 41  1  0
 19 42  1  0
 20 43  1  0
 21 44  1  0
 21 45  1  0
 22 46  1  0
 22 47  1  0
 24 48  1  0
 25 49  1  0
 25 50  1  0
 26 51  1  0
 26 52  1  0
 28 53  1  0
 28 54  1  0
 28 55  1  0
M  END
> <Name>
CHEMBL3263760

> <IC50 nM>
2770

> <Molecule_ChEMBL_ID>
CHEMBL3263760

> <Smiles>
COc1nc(C2=NN(c3ccc(C#N)c(C)c3)[C@@H](C3CCCC3)C2)ccc1C(N)=O

$$$$
CHEMBL1257222
  SciTegic08162514323D

 56 58  0  0  1  0            999 V2000
    2.8440    0.4920   -3.3420 F   0  0
    2.1700   -0.5630   -2.8910 C   0  0
    0.8910   -0.3950   -2.3300 C   0  0
    2.7360   -1.8460   -2.9710 C   0  0
    0.1780   -1.5100   -1.8540 C   0  0
    2.0250   -2.9590   -2.4920 C   0  0
    0.7460   -2.7970   -1.9340 C   0  0
   -1.1740   -1.3180   -1.2640 C   0  0
    0.0880   -3.8480   -1.4880 O   0  0
   -0.6920   -1.4710    0.1800 C   0  0
   -2.1330   -2.4340   -1.6860 C   0  0
   -1.7250    0.0760   -1.5570 C   0  0
    0.5190   -5.1330   -1.9100 C   0  0
   -1.7660   -1.1040    1.2030 C   0  0  1  0  0  0
   -3.0120   -1.5390    0.7090 O   0  0
   -1.4490   -1.8980    2.4710 C   0  0
   -1.8500    0.4020    1.4550 C   0  0
   -1.7010   -3.2290    2.2520 F   0  0
   -2.2350   -1.4470    3.5000 F   0  0
   -0.1270   -1.7300    2.7970 F   0  0
   -0.5180    0.9690    1.7090 N   0  0
   -0.3340    2.3030    1.6620 C   0  0
    0.9630    2.9120    1.6290 C   0  0
   -1.4850    3.1330    1.6480 C   0  0
    1.0720    4.3400    1.5820 C   0  0
    2.1600    2.1350    1.6390 C   0  0
   -1.3670    4.5410    1.6010 C   0  0
   -0.0920    5.1450    1.5680 C   0  0
    2.3480    4.9610    1.5510 C   0  0
    3.4260    2.7640    1.6050 C   0  0
    3.5190    4.1720    1.5620 C   0  0
    0.4570    0.5940   -2.2700 H   0  0
    3.7190   -1.9800   -3.3990 H   0  0
    2.4650   -3.9430   -2.5570 H   0  0
    0.2150   -0.8890    0.3460 H   0  0
   -0.3180   -2.4810    0.3550 H   0  0
   -1.8950   -2.8200   -2.6760 H   0  0
   -3.1600   -2.0680   -1.7070 H   0  0
   -2.0900   -3.2660   -0.9830 H   0  0
   -2.7660    0.1760   -1.2500 H   0  0
   -1.6700    0.2970   -2.6230 H   0  0
   -1.1490    0.8380   -1.0310 H   0  0
    0.5860   -5.1310   -2.9980 H   0  0
    1.4350   -5.3790   -1.3730 H   0  0
   -0.2400   -5.8590   -1.6230 H   0  0
   -3.6970   -1.0900    1.2260 H   0  0
   -2.4980    0.6130    2.3070 H   0  0
   -2.3010    0.9100    0.6030 H   0  0
    0.2520    0.3650    1.9140 H   0  0
   -2.4790    2.7050    1.6740 H   0  0
    2.1330    1.0550    1.6700 H   0  0
   -2.2540    5.1540    1.5900 H   0  0
   -0.0250    6.2230    1.5330 H   0  0
    2.4430    6.0390    1.5190 H   0  0
    4.3240    2.1660    1.6110 H   0  0
    4.4880    4.6470    1.5390 H   0  0
  1  2  1  0
  2  3  2  0
  2  4  1  0
  3  5  1  0
  4  6  2  0
  5  7  2  0
  5  8  1  0
  7  9  1  0
  8 10  1  0
  8 11  1  0
  8 12  1  0
  9 13  1  0
 10 14  1  0
 14 15  1  0
 14 16  1  0
 14 17  1  0
 16 18  1  0
 16 19  1  0
 16 20  1  0
 17 21  1  0
 21 22  1  0
 22 23  2  0
 22 24  1  0
 23 25  1  0
 23 26  1  0
 24 27  2  0
 25 28  2  0
 25 29  1  0
 26 30  2  0
 29 31  2  0
  6  7  1  0
 27 28  1  0
 30 31  1  0
  3 32  1  0
  4 33  1  0
  6 34  1  0
 10 35  1  0
 10 36  1  0
 11 37  1  0
 11 38  1  0
 11 39  1  0
 12 40  1  0
 12 41  1  0
 12 42  1  0
 13 43  1  0
 13 44  1  0
 13 45  1  0
 15 46  1  0
 17 47  1  0
 17 48  1  0
 21 49  1  0
 24 50  1  0
 26 51  1  0
 27 52  1  0
 28 53  1  0
 29 54  1  0
 30 55  1  0
 31 56  1  0
M  END
> <Name>
CHEMBL1257222

> <IC50 nM>
1000

> <Molecule_ChEMBL_ID>
CHEMBL1257222

> <Smiles>
COc1ccc(F)cc1C(C)(C)CC(O)(CNc1cccc2ccccc12)C(F)(F)F

$$$$
CHEMBL1257342
  SciTegic08162514323D

 53 55  0  0  1  0            999 V2000
    3.5180    1.6780    2.9060 F   0  0
    2.2970    2.2090    2.9590 C   0  0
    1.3950    2.0040    1.9020 C   0  0
    1.9120    2.9730    4.0740 C   0  0
    0.1050    2.5650    1.9590 C   0  0
    0.6250    3.5330    4.1290 C   0  0
   -0.2830    3.3320    3.0740 C   0  0
   -0.8420    2.3420    0.8340 C   0  0
   -1.4880    3.8610    3.1390 O   0  0
   -0.1800    1.5900   -0.3200 C   0  0
   -1.5020    3.6490    0.3870 C   0  0
   -1.7830    1.4570    1.6520 C   0  0
   -1.1820    1.1450   -1.3870 C   0  0  1  0  0  0
   -2.4020    1.8070   -1.1480 O   0  0
   -0.6310    1.6230   -2.7300 C   0  0
   -1.4400   -0.3630   -1.3570 C   0  0
   -0.6190    2.9940   -2.7580 F   0  0
   -1.4240    1.1520   -3.7440 F   0  0
    0.6460    1.1520   -2.8950 F   0  0
   -0.1880   -1.1150   -1.5060 N   0  0
   -0.2010   -2.4610   -1.4630 C   0  0
    0.9920   -3.2540   -1.4470 C   0  0
   -1.4610   -3.1150   -1.4280 C   0  0
    0.8930   -4.6840   -1.4020 C   0  0
    2.2910   -2.6640   -1.4790 C   0  0
   -1.5490   -4.5230   -1.3810 C   0  0
   -0.3790   -5.3090   -1.3670 C   0  0
    2.0620   -5.4860   -1.3910 C   0  0
    3.4510   -3.4730   -1.4670 C   0  0
    3.3360   -4.8790   -1.4240 C   0  0
    1.6910    1.4160    1.0450 H   0  0
    2.6040    3.1330    4.8890 H   0  0
    0.3320    4.1210    4.9880 H   0  0
   -1.7340    4.3850    3.9120 H   0  0
    0.3930    0.7400    0.0510 H   0  0
    0.6150    2.1900   -0.7660 H   0  0
   -1.0940    4.5100    0.9140 H   0  0
   -2.5760    3.6210    0.5720 H   0  0
   -1.3520    3.8090   -0.6820 H   0  0
   -1.2170    0.7310    2.2340 H   0  0
   -2.3890    2.0610    2.3280 H   0  0
   -2.4590    0.9060    0.9980 H   0  0
   -3.1110    1.1600   -1.2910 H   0  0
   -2.1290   -0.6500   -2.1520 H   0  0
   -1.9240   -0.6520   -0.4260 H   0  0
    0.6760   -0.6290   -1.6410 H   0  0
   -2.3810   -2.5450   -1.4370 H   0  0
    2.4220   -1.5920   -1.5120 H   0  0
   -2.5180   -5.0000   -1.3530 H   0  0
   -0.4710   -6.3870   -1.3320 H   0  0
    1.9980   -6.5660   -1.3570 H   0  0
    4.4280   -3.0120   -1.4900 H   0  0
    4.2270   -5.4900   -1.4160 H   0  0
  1  2  1  0
  2  3  2  0
  2  4  1  0
  3  5  1  0
  4  6  2  0
  5  7  2  0
  5  8  1  0
  7  9  1  0
  8 10  1  0
  8 11  1  0
  8 12  1  0
 10 13  1  0
 13 14  1  0
 13 15  1  0
 13 16  1  0
 15 17  1  0
 15 18  1  0
 15 19  1  0
 16 20  1  0
 20 21  1  0
 21 22  2  0
 21 23  1  0
 22 24  1  0
 22 25  1  0
 23 26  2  0
 24 27  2  0
 24 28  1  0
 25 29  2  0
 28 30  2  0
  6  7  1  0
 26 27  1  0
 29 30  1  0
  3 31  1  0
  4 32  1  0
  6 33  1  0
  9 34  1  0
 10 35  1  0
 10 36  1  0
 11 37  1  0
 11 38  1  0
 11 39  1  0
 12 40  1  0
 12 41  1  0
 12 42  1  0
 14 43  1  0
 16 44  1  0
 16 45  1  0
 20 46  1  0
 23 47  1  0
 25 48  1  0
 26 49  1  0
 27 50  1  0
 28 51  1  0
 29 52  1  0
 30 53  1  0
M  END
> <Name>
CHEMBL1257342

> <IC50 nM>
15.85

> <Molecule_ChEMBL_ID>
CHEMBL1257342

> <Smiles>
CC(C)(CC(O)(CNc1cccc2ccccc12)C(F)(F)F)c1cc(F)ccc1O

$$$$
CHEMBL1257454
  SciTegic08162514323D

 58 60  0  0  1  0            999 V2000
   -0.5960   -5.8140    3.2400 F   0  0
   -0.1390   -4.9570    2.3300 C   0  0
   -1.0370   -4.2790    1.4880 C   0  0
    1.2420   -4.7280    2.2110 C   0  0
   -0.5570   -3.3730    0.5270 C   0  0
    1.7230   -3.8220    1.2500 C   0  0
    0.8280   -3.1420    0.4060 C   0  0
   -1.5160   -2.6600   -0.3590 C   0  0
    1.2930   -2.2950   -0.4920 O   0  0
   -1.6020   -1.4260    0.5370 C   0  0
   -2.8460   -3.4080   -0.4610 C   0  0
   -0.9020   -2.3570   -1.7270 C   0  0
    2.6030   -1.7830   -0.3110 C   0  0
   -2.4450   -0.3080   -0.0760 C   0  0  1  0  0  0
   -3.4830   -0.9000   -0.8260 O   0  0
   -3.0760    0.4530    1.0920 C   0  0
   -1.6410    0.6000   -1.0060 C   0  0
   -3.8380   -0.4080    1.8400 F   0  0
   -3.8690    1.4590    0.6050 F   0  0
   -2.0880    0.9860    1.8750 F   0  0
   -0.4980    1.1970   -0.2990 N   0  0
   -0.3200    2.5310   -0.3130 C   0  0
    0.9750    3.1450   -0.3260 C   0  0
   -1.4730    3.3600   -0.3130 C   0  0
    1.0920    4.5780   -0.3400 C   0  0
    2.1760    2.3710   -0.3280 C   0  0
   -1.3540    4.7660   -0.3260 C   0  0
    2.3320    5.1880   -0.3540 N   0  0
   -0.0800    5.3730   -0.3400 C   0  0
    3.4360    3.0200   -0.3420 C   0  0
    3.4860    4.4340   -0.3540 C   0  0
    4.7890    5.1150   -0.3670 C   0  0
   -2.1000   -4.4550    1.5820 H   0  0
    1.9370   -5.2460    2.8560 H   0  0
    2.7850   -3.6500    1.1620 H   0  0
   -0.6040   -1.0600    0.7870 H   0  0
   -1.9730   -1.6910    1.5270 H   0  0
   -2.7070   -4.4880   -0.4570 H   0  0
   -3.3650   -3.1420   -1.3830 H   0  0
   -3.4980   -3.1520    0.3750 H   0  0
   -0.3540   -3.2110   -2.1230 H   0  0
   -0.2110   -1.5170   -1.6600 H   0  0
   -1.6760   -2.0960   -2.4450 H   0  0
    2.7620   -0.9820   -1.0310 H   0  0
    2.7250   -1.5170    0.7400 H   0  0
    3.3140   -2.5800   -0.5370 H   0  0
   -3.4690   -0.4900   -1.7050 H   0  0
   -2.2680    1.3950   -1.4060 H   0  0
   -1.2750    0.0410   -1.8670 H   0  0
    0.1460    0.6110    0.1930 H   0  0
   -2.4650    2.9300   -0.3030 H   0  0
    2.1560    1.2910   -0.3180 H   0  0
   -2.2420    5.3790   -0.3280 H   0  0
   -0.0180    6.4510   -0.3500 H   0  0
    4.3440    2.4360   -0.3420 H   0  0
    4.7270    6.2030   -0.3610 H   0  0
    5.3460    4.8170   -1.2560 H   0  0
    5.3670    4.8110    0.5060 H   0  0
  1  2  1  0
  2  3  2  0
  2  4  1  0
  3  5  1  0
  4  6  2  0
  5  7  2  0
  5  8  1  0
  7  9  1  0
  8 10  1  0
  8 11  1  0
  8 12  1  0
  9 13  1  0
 10 14  1  0
 14 15  1  0
 14 16  1  0
 14 17  1  0
 16 18  1  0
 16 19  1  0
 16 20  1  0
 17 21  1  0
 21 22  1  0
 22 23  2  0
 22 24  1  0
 23 25  1  0
 23 26  1  0
 24 27  2  0
 25 28  1  0
 25 29  2  0
 26 30  2  0
 28 31  2  0
 31 32  1  0
  6  7  1  0
 27 29  1  0
 30 31  1  0
  3 33  1  0
  4 34  1  0
  6 35  1  0
 10 36  1  0
 10 37  1  0
 11 38  1  0
 11 39  1  0
 11 40  1  0
 12 41  1  0
 12 42  1  0
 12 43  1  0
 13 44  1  0
 13 45  1  0
 13 46  1  0
 15 47  1  0
 17 48  1  0
 17 49  1  0
 21 50  1  0
 24 51  1  0
 26 52  1  0
 27 53  1  0
 29 54  1  0
 30 55  1  0
 32 56  1  0
 32 57  1  0
 32 58  1  0
M  END
> <Name>
CHEMBL1257454

> <IC50 nM>
25.12

> <Molecule_ChEMBL_ID>
CHEMBL1257454

> <Smiles>
COc1ccc(F)cc1C(C)(C)CC(O)(CNc1cccc2nc(C)ccc12)C(F)(F)F

$$$$
CHEMBL1254995
  SciTegic08162514323D

 51 53  0  0  1  0            999 V2000
   -4.2050    4.4690   -1.8090 F   0  0
   -3.0080    4.1450   -1.3240 C   0  0
   -2.8050    2.8870   -0.7310 C   0  0
   -1.9450    5.0610   -1.4080 C   0  0
   -1.5410    2.5450   -0.2170 C   0  0
   -0.6820    4.7190   -0.8970 C   0  0
   -0.4750    3.4630   -0.3010 C   0  0
   -1.3380    1.2130    0.4100 C   0  0
    0.7150    3.1520    0.1780 O   0  0
   -0.6090    0.6270   -0.8010 C   0  0
   -2.6700    0.5160    0.6910 C   0  0
   -0.4450    1.3030    1.6480 C   0  0
    1.7440    4.1270    0.0840 C   0  0
   -0.4260   -0.8870   -0.7030 C   0  0  1  0  0  0
   -1.6780   -1.4980   -0.9260 O   0  0
    0.5100   -1.2870   -1.8440 C   0  0
    0.0880   -1.3320    0.6660 C   0  0
    0.1390   -0.6350   -2.9900 F   0  0
    0.4350   -2.6410   -2.0430 F   0  0
    1.7970   -0.9430   -1.5200 F   0  0
    0.5000   -2.7440    0.6410 N   0  0
    1.7950   -3.2330    0.6860 C   0  0
   -0.3580   -3.8750    0.5640 C   0  0
    1.7170   -4.6020    0.6370 C   0  0
    3.0680   -2.6330    0.7660 C   0  0
    0.4410   -5.0370    0.5620 C   0  0
    2.8940   -5.4020    0.6640 C   0  0
    4.2460   -3.3480    0.7990 N   0  0
    4.1540   -4.7340    0.7460 C   0  0
   -3.6230    2.1840   -0.6660 H   0  0
   -2.0960    6.0270   -1.8650 H   0  0
    0.1330    5.4260   -0.9610 H   0  0
    0.3490    1.1230   -0.9490 H   0  0
   -1.1230    0.8950   -1.7250 H   0  0
   -3.3520    1.1540    1.2520 H   0  0
   -2.5120   -0.3950    1.2710 H   0  0
   -3.1620    0.2340   -0.2380 H   0  0
   -0.5740    2.2480    2.1740 H   0  0
    0.6050    1.2150    1.3730 H   0  0
   -0.6760    0.5000    2.3480 H   0  0
    1.9340    4.3220   -0.9730 H   0  0
    1.4590    4.9840    0.6890 H   0  0
    2.6520    3.7030    0.5120 H   0  0
   -1.9730   -1.8630   -0.0760 H   0  0
   -0.7150   -1.2010    1.3930 H   0  0
    0.9280   -0.7150    0.9820 H   0  0
   -1.4360   -3.8130    0.5180 H   0  0
    3.1270   -1.5570    0.8050 H   0  0
    0.0920   -6.0610    0.5140 H   0  0
    2.8460   -6.4830    0.6250 H   0  0
    5.0610   -5.3220    0.7700 H   0  0
  1  2  1  0
  2  3  2  0
  2  4  1  0
  3  5  1  0
  4  6  2  0
  5  7  2  0
  5  8  1  0
  7  9  1  0
  8 10  1  0
  8 11  1  0
  8 12  1  0
  9 13  1  0
 10 14  1  0
 14 15  1  0
 14 16  1  0
 14 17  1  0
 16 18  1  0
 16 19  1  0
 16 20  1  0
 17 21  1  0
 21 22  1  0
 21 23  1  0
 22 24  1  0
 22 25  2  0
 23 26  2  0
 24 27  2  0
 25 28  1  0
 27 29  1  0
  6  7  1  0
 24 26  1  0
 28 29  2  0
  3 30  1  0
  4 31  1  0
  6 32  1  0
 10 33  1  0
 10 34  1  0
 11 35  1  0
 11 36  1  0
 11 37  1  0
 12 38  1  0
 12 39  1  0
 12 40  1  0
 13 41  1  0
 13 42  1  0
 13 43  1  0
 15 44  1  0
 17 45  1  0
 17 46  1  0
 23 47  1  0
 25 48  1  0
 26 49  1  0
 27 50  1  0
 29 51  1  0
M  END
> <Name>
CHEMBL1254995

> <IC50 nM>
1400

> <Molecule_ChEMBL_ID>
CHEMBL1254995

> <Smiles>
COc1ccc(F)cc1C(C)(C)CC(O)(Cn1ccc2ccncc21)C(F)(F)F

$$$$
CHEMBL1644756
  SciTegic08162514323D

 53 56  0  0  1  0            999 V2000
   -0.1250   -1.4820    2.1040 Cl  0  0
   -0.3440   -0.7380    0.5510 C   0  0
   -0.5140   -1.5700   -0.5940 C   0  0
   -0.3540    0.6930    0.4020 C   0  0
   -0.4900   -3.0230   -0.5040 C   0  0
   -0.7110   -1.0040   -1.8690 C   0  0
   -0.5980    1.2560   -0.8980 C   0  0
   -0.1040    1.5880    1.5880 C   0  0  2  0  0  0
    0.7360   -3.7360   -0.4530 C   0  0
   -1.7090   -3.7520   -0.4650 C   0  0
   -0.7600    0.3950   -2.0250 C   0  0
   -0.6780    2.6020   -1.0760 N   0  0
   -0.1020    3.0760    1.2790 C   0  0
    1.2770    1.2770    2.1910 C   0  0
   -1.2010    1.3980    2.6450 C   0  0
    2.0630   -3.3260   -0.4730 N   0  0
    0.7560   -5.1070   -0.3690 C   0  0
   -1.6820   -5.1720   -0.3770 C   0  0
   -0.9900    0.9180   -3.3890 C   0  0
   -0.8160    3.5610    0.0410 C   0  0
    0.4590    3.8610    2.0140 O   0  0
    2.2970    0.9320    1.1410 C   0  0
    2.8650   -4.4900   -0.3980 C   0  0
   -0.4430   -5.8630   -0.3300 C   0  0
    2.0100   -5.6060   -0.3340 C   0  0
   -2.3030    3.7330    0.3670 C   0  0
   -0.2400    4.9140   -0.3980 C   0  0
    3.4120    1.6780    1.0590 C   0  0
   -0.8300   -1.6370   -2.7380 H   0  0
   -2.6620   -3.2440   -0.5000 H   0  0
   -0.6740    2.9900   -1.9980 H   0  0
    1.1310    0.4300    2.8570 H   0  0
    1.6330    2.1150    2.7910 H   0  0
   -2.1560    1.1270    2.1930 H   0  0
   -1.3520    2.3160    3.2130 H   0  0
   -0.9280    0.6110    3.3480 H   0  0
    2.3930   -2.3910   -0.5270 H   0  0
   -2.6070   -5.7270   -0.3480 H   0  0
   -1.0510    0.0860   -4.0920 H   0  0
   -1.8850    1.5410   -3.3930 H   0  0
   -0.1460    1.5430   -3.6840 H   0  0
    2.2270    0.1270    0.4240 H   0  0
    3.9450   -4.4810   -0.3930 H   0  0
   -0.4260   -6.9410   -0.2640 H   0  0
    2.3090   -6.6450   -0.2680 H   0  0
   -2.7700    2.7870    0.6430 H   0  0
   -2.8400    4.1330   -0.4920 H   0  0
   -2.4380    4.4260    1.1950 H   0  0
    0.8200    4.8460   -0.6390 H   0  0
   -0.3570    5.6560    0.3910 H   0  0
   -0.7580    5.2830   -1.2830 H   0  0
    4.2270    1.5530    0.3610 H   0  0
    3.4820    2.4820    1.7730 H   0  0
  1  2  1  0
  2  3  2  0
  2  4  1  0
  3  5  1  0
  3  6  1  0
  4  7  2  0
  4  8  1  0
  5  9  2  0
  5 10  1  0
  6 11  2  0
  7 12  1  0
  8 13  1  0
  8 14  1  0
  8 15  1  0
  9 16  1  0
  9 17  1  0
 10 18  2  0
 11 19  1  0
 12 20  1  0
 13 21  2  0
 14 22  1  0
 16 23  1  0
 17 24  2  0
 17 25  1  0
 20 26  1  0
 20 27  1  0
 22 28  2  0
  7 11  1  0
 13 20  1  0
 18 24  1  0
 23 25  2  0
  6 29  1  0
 10 30  1  0
 12 31  1  0
 14 32  1  0
 14 33  1  0
 15 34  1  0
 15 35  1  0
 15 36  1  0
 16 37  1  0
 18 38  1  0
 19 39  1  0
 19 40  1  0
 19 41  1  0
 22 42  1  0
 23 43  1  0
 24 44  1  0
 25 45  1  0
 26 46  1  0
 26 47  1  0
 26 48  1  0
 27 49  1  0
 27 50  1  0
 27 51  1  0
 28 52  1  0
 28 53  1  0
M  END
> <Name>
CHEMBL1644756

> <IC50 nM>
2.1

> <Molecule_ChEMBL_ID>
CHEMBL1644756

> <Smiles>
C=CCC1(C)C(=O)C(C)(C)Nc2c(C)cc(-c3cccc4cc[nH]c34)c(Cl)c21

$$$$
CHEMBL1644765
  SciTegic08162514323D

 48 51  0  0  1  0            999 V2000
   -0.8280    2.6390   -0.3770 Cl  0  0
   -0.4470    0.9470   -0.3180 C   0  0
   -1.5140    0.0060   -0.2270 C   0  0
    0.9120    0.4820   -0.3440 C   0  0
   -2.9160    0.4140   -0.2660 C   0  0
   -1.2440   -1.3710   -0.0940 C   0  0
    1.1740   -0.9160   -0.1150 C   0  0
    2.0610    1.4320   -0.5860 C   0  0  1  0  0  0
   -3.7460    0.2970    0.8790 C   0  0
   -3.4710    0.9400   -1.4630 C   0  0
    0.0840   -1.8320   -0.0200 C   0  0
    2.4470   -1.3850    0.0210 N   0  0
    3.4100    0.7150   -0.8570 C   0  0  1  0  0  0
    1.8070    2.4530   -1.7150 C   0  0
   -3.5080   -0.1660    2.1680 N   0  0
   -5.0640    0.6800    0.8420 C   0  0
   -4.8360    1.3340   -1.4960 C   0  0
    0.2910   -3.2830    0.1620 C   0  0
    3.6250   -0.4840    0.0920 C   0  0
    3.4650    0.2730   -2.2110 O   0  0
   -4.7230   -0.0450    2.8890 C   0  0
   -5.6460    1.2050   -0.3380 C   0  0
   -5.6910    0.4940    2.0230 C   0  0
    3.7740    0.0040    1.5350 C   0  0
    4.8970   -1.2680   -0.2770 C   0  0
   -2.0550   -2.0840   -0.0370 H   0  0
    2.1780    1.9980    0.3400 H   0  0
   -2.8690    1.0430   -2.3540 H   0  0
    2.6230   -2.3670    0.0980 H   0  0
    4.2290    1.4280   -0.7440 H   0  0
    1.4360    3.3930   -1.3070 H   0  0
    2.7210    2.6430   -2.2750 H   0  0
    1.0610    2.0760   -2.4140 H   0  0
   -2.6500   -0.5180    2.5230 H   0  0
   -5.2600    1.7320   -2.4060 H   0  0
    0.9000   -3.7500   -0.6130 H   0  0
   -0.6740   -3.7890    0.1760 H   0  0
    0.7750   -3.4650    1.1210 H   0  0
    4.4020    0.2290   -2.4590 H   0  0
   -4.8420   -0.3320    3.9240 H   0  0
   -6.6860    1.5060   -0.3650 H   0  0
   -6.7250    0.7090    2.2660 H   0  0
    2.8810    0.5220    1.8850 H   0  0
    4.6150    0.6910    1.6270 H   0  0
    3.9570   -0.8360    2.2090 H   0  0
    4.8260   -1.7090   -1.2720 H   0  0
    5.0720   -2.0720    0.4360 H   0  0
    5.7700   -0.6130   -0.2640 H   0  0
  1  2  1  0
  2  3  2  0
  2  4  1  0
  3  5  1  0
  3  6  1  0
  4  7  2  0
  4  8  1  0
  5  9  2  0
  5 10  1  0
  6 11  2  0
  7 12  1  0
  8 13  1  0
  8 14  1  0
  9 15  1  0
  9 16  1  0
 10 17  2  0
 11 18  1  0
 12 19  1  0
 13 20  1  0
 15 21  1  0
 16 22  2  0
 16 23  1  0
 19 24  1  0
 19 25  1  0
  7 11  1  0
 13 19  1  0
 17 22  1  0
 21 23  2  0
  6 26  1  0
  8 27  1  0
 10 28  1  0
 12 29  1  0
 13 30  1  0
 14 31  1  0
 14 32  1  0
 14 33  1  0
 15 34  1  0
 17 35  1  0
 18 36  1  0
 18 37  1  0
 18 38  1  0
 20 39  1  0
 21 40  1  0
 22 41  1  0
 23 42  1  0
 24 43  1  0
 24 44  1  0
 24 45  1  0
 25 46  1  0
 25 47  1  0
 25 48  1  0
M  END
> <Name>
CHEMBL1644765

> <IC50 nM>
24

> <Molecule_ChEMBL_ID>
CHEMBL1644765

> <Smiles>
Cc1cc(-c2cccc3cc[nH]c23)c(Cl)c2c1NC(C)(C)[C@@H](O)[C@H]2C

$$$$
CHEMBL3094486
  SciTegic08162514323D

 49 50  0  0  1  0            999 V2000
   -0.0570   -1.2130    0.9290 S   0  0
   -0.6720   -2.5140    1.1250 O   0  0
    1.3690   -1.2050    1.2110 O   0  0
   -0.2110   -0.8570   -0.7680 N   0  0
   -0.8240   -0.0820    1.9860 C   0  0
    0.4880   -1.7150   -1.7090 C   0  0  2  0  0  0
   -1.3850   -0.5230    3.1990 C   0  0
   -0.8910    1.2790    1.6330 C   0  0
    0.5000   -1.0840   -3.1020 C   0  0
   -0.1150   -3.1210   -1.7030 C   0  0
   -2.0100    0.3980    4.0580 C   0  0
   -1.3180   -1.9590    3.5800 C   0  0
   -1.5180    2.1970    2.4940 C   0  0
   -0.3010    1.7520    0.3510 C   0  0
    1.1950    0.2290   -3.1020 C   0  0
    0.8130   -4.1580   -1.0670 C   0  0
   -2.0760    1.7580    3.7070 C   0  0
    0.4490    1.4200   -3.1020 C   0  0
    2.6000    0.2810   -3.1020 C   0  0
   -2.7380    2.7310    4.6170 C   0  0
    1.1070    2.6620   -3.1020 C   0  0
    3.2560    1.5240   -3.1020 C   0  0
    2.5140    2.7170   -3.1020 C   0  0
    3.1310    3.8810   -3.1020 O   0  0
   -1.2070   -0.8420   -1.0260 H   0  0
    1.4920   -1.7250   -1.2830 H   0  0
   -0.5180   -0.9570   -3.4750 H   0  0
    0.9770   -1.7480   -3.8230 H   0  0
   -1.0880   -3.1210   -1.2130 H   0  0
   -0.3950   -3.4240   -2.7130 H   0  0
   -2.4390    0.0610    4.9920 H   0  0
   -0.3420   -2.4180    3.4300 H   0  0
   -2.0450   -2.5230    2.9960 H   0  0
   -1.5800   -2.0680    4.6330 H   0  0
   -1.5680    3.2420    2.2240 H   0  0
    0.6700    1.3180    0.1170 H   0  0
   -0.1840    2.8360    0.3850 H   0  0
   -0.9790    1.5160   -0.4690 H   0  0
    0.3340   -5.1370   -1.0390 H   0  0
    1.7460   -4.2340   -1.6230 H   0  0
    1.0570   -3.8770   -0.0410 H   0  0
   -0.6310    1.3870   -3.1020 H   0  0
    3.1800   -0.6310   -3.1020 H   0  0
   -2.7360    3.7580    4.2520 H   0  0
   -2.2380    2.7190    5.5860 H   0  0
   -3.7750    2.4340    4.7730 H   0  0
    0.5310    3.5740   -3.1020 H   0  0
    4.3360    1.5590   -3.1020 H   0  0
    4.0960    3.9040   -3.1020 H   0  0
  1  2  2  0
  1  3  2  0
  1  4  1  0
  1  5  1  0
  6  4  1  0
  5  7  2  0
  5  8  1  0
  6  9  1  0
  6 10  1  0
  7 11  1  0
  7 12  1  0
  8 13  2  0
  8 14  1  0
  9 15  1  0
 10 16  1  0
 11 17  2  0
 15 18  2  0
 15 19  1  0
 17 20  1  0
 18 21  1  0
 19 22  2  0
 21 23  2  0
 23 24  1  0
 13 17  1  0
 22 23  1  0
  4 25  1  0
  6 26  1  0
  9 27  1  0
  9 28  1  0
 10 29  1  0
 10 30  1  0
 11 31  1  0
 12 32  1  0
 12 33  1  0
 12 34  1  0
 13 35  1  0
 14 36  1  0
 14 37  1  0
 14 38  1  0
 16 39  1  0
 16 40  1  0
 16 41  1  0
 18 42  1  0
 19 43  1  0
 20 44  1  0
 20 45  1  0
 20 46  1  0
 21 47  1  0
 22 48  1  0
 24 49  1  0
M  END
> <Name>
CHEMBL3094486

> <IC50 nM>
2000

> <Molecule_ChEMBL_ID>
CHEMBL3094486

> <Smiles>
CC[C@@H](Cc1ccc(O)cc1)NS(=O)(=O)c1c(C)cc(C)cc1C

$$$$
CHEMBL221686
  SciTegic08162514323D

 63 67  0  0  1  0            999 V2000
   -6.2330   -2.2830    0.0590 O   0  0
   -5.0350   -2.1310    0.0000 C   0  0
   -4.2030   -2.2400    1.2030 C   0  0
   -4.3420   -1.8220   -1.3010 C   0  0
   -2.9260   -1.8010    1.2420 C   0  0
   -3.1680   -0.8440   -1.1370 C   0  0
   -2.2930   -1.1020    0.0880 C   0  0
   -2.1230   -2.0210    2.5060 C   0  0
   -0.9960   -0.6840    0.1410 C   0  0
   -0.6430   -2.1970    2.1760 C   0  0
   -0.3480    0.1430   -0.9730 C   0  0  1  0  0  0
   -0.1230   -1.0060    1.3560 C   0  0  1  0  0  0
   -0.6060    1.5960   -0.7600 C   0  0
    1.1560   -0.1540   -1.1870 C   0  0
    1.3340   -1.3090    0.9710 C   0  0  1  0  0  0
   -0.1150    2.5410   -1.6780 C   0  0
   -1.3420    2.0230    0.3590 C   0  0
    1.9610   -0.1910    0.1250 C   0  0  1  0  0  0
    2.3420   -1.4550    2.1170 C   0  0
   -0.3600    3.9100   -1.4760 C   0  0
   -1.5860    3.3930    0.5590 C   0  0
    3.4410   -0.6520    0.0680 C   0  0  2  0  0  0
    1.8730    1.1520    0.8750 C   0  0
    3.7010   -1.0410    1.5370 C   0  0
   -1.0960    4.3400   -0.3570 C   0  0
    4.3010    0.4060   -0.3240 O   0  0
    3.6780   -1.7890   -0.8360 C   0  0
   -1.3240    5.6250   -0.1680 O   0  0
    3.8790   -2.7050   -1.5660 C   0  0
   -0.7560    6.5450   -1.0900 C   0  0
    4.1270   -3.8300   -2.4650 C   0  0
   -4.6350   -2.6970    2.0820 H   0  0
   -5.0610   -1.4260   -2.0210 H   0  0
   -3.9770   -2.7620   -1.7190 H   0  0
   -2.5980   -0.9160   -2.0570 H   0  0
   -3.5490    0.1740   -1.0820 H   0  0
   -2.2600   -1.1680    3.1680 H   0  0
   -2.4850   -2.9000    3.0430 H   0  0
   -0.0780   -2.2990    3.1020 H   0  0
   -0.5040   -3.1250    1.6230 H   0  0
   -0.7970   -0.0840   -1.9320 H   0  0
   -0.1370   -0.1270    2.0040 H   0  0
    1.2280   -1.1210   -1.6870 H   0  0
    1.6000    0.5640   -1.8750 H   0  0
    1.3420   -2.2300    0.4000 H   0  0
    0.4510    2.2190   -2.5390 H   0  0
   -1.7230    1.3030    1.0680 H   0  0
    2.3550   -2.4650    2.4980 H   0  0
    2.0780   -0.8050    2.9400 H   0  0
    0.0190    4.6330   -2.1840 H   0  0
   -2.1530    3.7170    1.4200 H   0  0
    0.8530    1.3810    1.1820 H   0  0
    2.2230    1.9690    0.2420 H   0  0
    2.4940    1.1330    1.7700 H   0  0
    4.0720   -0.1970    2.1080 H   0  0
    4.4410   -1.8240    1.6490 H   0  0
    3.9690    0.7480   -1.1700 H   0  0
   -1.0860    7.5470   -0.8160 H   0  0
    0.3200    6.3810   -1.1130 H   0  0
   -1.1510    6.3220   -2.0800 H   0  0
    5.1950   -4.0270   -2.5350 H   0  0
    3.7460   -3.6070   -3.4610 H   0  0
    3.6310   -4.7270   -2.0940 H   0  0
  1  2  2  0
  2  3  1  0
  2  4  1  0
  3  5  2  0
  4  6  1  0
  5  7  1  0
  5  8  1  0
  7  9  2  0
  8 10  1  0
  9 11  1  0
  9 12  1  0
 11 13  1  0
 11 14  1  0
 12 15  1  0
 13 16  2  0
 13 17  1  0
 14 18  1  0
 15 19  1  0
 16 20  1  0
 17 21  2  0
 18 22  1  0
 18 23  1  0
 19 24  1  0
 20 25  2  0
 22 26  1  0
 22 27  1  0
 25 28  1  0
 27 29  3  0
 28 30  1  0
 29 31  1  0
  6  7  1  0
 12 10  1  0
 15 18  1  0
 21 25  1  0
 22 24  1  0
  3 32  1  0
  4 33  1  0
  4 34  1  0
  6 35  1  0
  6 36  1  0
  8 37  1  0
  8 38  1  0
 10 39  1  0
 10 40  1  0
 11 41  1  0
 12 42  1  0
 14 43  1  0
 14 44  1  0
 15 45  1  0
 16 46  1  0
 17 47  1  0
 19 48  1  0
 19 49  1  0
 20 50  1  0
 21 51  1  0
 23 52  1  0
 23 53  1  0
 23 54  1  0
 24 55  1  0
 24 56  1  0
 26 57  1  0
 30 58  1  0
 30 59  1  0
 30 60  1  0
 31 61  1  0
 31 62  1  0
 31 63  1  0
M  END
> <Name>
CHEMBL221686

> <IC50 nM>
0.9

> <Molecule_ChEMBL_ID>
CHEMBL221686

> <Smiles>
CC#C[C@]1(O)CC[C@H]2[C@@H]3CCC4=CC(=O)CCC4=C3[C@@H](c3ccc(OC)cc3)C[C@@]21C

$$$$
CHEMBL3093452
  SciTegic08162514323D

 50 52  0  0  1  0            999 V2000
   -0.3810   -0.0100    0.8890 S   0  0
    0.6310   -0.2270   -0.1330 O   0  0
   -0.3200    1.3140    1.4800 O   0  0
   -1.9140   -0.1020    0.0700 N   0  0
   -0.1460   -1.1780    2.1410 C   0  0
   -2.1660    0.8340   -1.0120 C   0  0  2  0  0  0
    0.6040   -0.8420    3.2830 C   0  0
   -0.7050   -2.4630    2.0180 C   0  0
   -3.6640    0.9260   -1.3010 C   0  0
   -1.3500    0.4550   -2.2480 C   0  0
    0.7930   -1.7930    4.3030 C   0  0
    1.1970    0.5140    3.4220 C   0  0
   -0.5140   -3.4120    3.0370 C   0  0
   -1.4980   -2.8260    0.8120 C   0  0
   -4.3140    1.4060   -0.1930 F   0  0
   -4.1480   -0.3200   -1.6090 F   0  0
   -3.8750    1.7720   -2.3590 F   0  0
   -0.4410    1.5940   -2.6780 C   0  0
    0.2340   -3.0780    4.1800 C   0  0
    0.8710    1.5430   -3.0100 C   0  0
   -0.8090    2.9470   -2.8110 C   0  0
    0.4360   -4.0820    5.2580 C   0  0
    1.3810    2.7720   -3.3460 C   0  0
    1.6860    0.3850   -3.0270 C   0  0
    0.3340    3.6740   -3.2290 N   0  0
    2.7440    2.9260   -3.7250 C   0  0
    3.0490    0.5120   -3.4060 C   0  0
    3.2770    4.2230   -4.0780 C   0  0
    3.5860    1.7810   -3.7580 C   0  0
    3.7050    5.2620   -4.3670 N   0  0
   -2.6740   -0.0120    0.7600 H   0  0
   -1.7990    1.7640   -0.5780 H   0  0
   -2.0060    0.1820   -3.0740 H   0  0
   -0.7500   -0.4360   -2.0550 H   0  0
    1.3670   -1.5350    5.1800 H   0  0
    1.7110    0.8710    2.5290 H   0  0
    1.9140    0.5160    4.2420 H   0  0
    0.4120    1.2300    3.6640 H   0  0
   -0.9430   -4.4000    2.9430 H   0  0
   -1.6370   -3.8980    0.6720 H   0  0
   -1.0060   -2.4340   -0.0780 H   0  0
   -2.4840   -2.3670    0.8750 H   0  0
   -1.7730    3.4020   -2.6390 H   0  0
   -0.0780   -5.0060    4.9920 H   0  0
    1.5020   -4.2270    5.4260 H   0  0
   -0.0020   -3.7130    6.1860 H   0  0
    1.2830   -0.5780   -2.7640 H   0  0
    0.3750    4.6490   -3.4080 H   0  0
    3.6760   -0.3630   -3.4280 H   0  0
    4.6270    1.8500   -4.0450 H   0  0
  1  2  2  0
  1  3  2  0
  1  4  1  0
  1  5  1  0
  6  4  1  0
  5  7  2  0
  5  8  1  0
  6  9  1  0
  6 10  1  0
  7 11  1  0
  7 12  1  0
  8 13  2  0
  8 14  1  0
  9 15  1  0
  9 16  1  0
  9 17  1  0
 10 18  1  0
 11 19  2  0
 18 20  1  0
 18 21  2  0
 19 22  1  0
 20 23  1  0
 20 24  2  0
 21 25  1  0
 23 26  2  0
 24 27  1  0
 26 28  1  0
 26 29  1  0
 28 30  3  0
 13 19  1  0
 23 25  1  0
 27 29  2  0
  4 31  1  0
  6 32  1  0
 10 33  1  0
 10 34  1  0
 11 35  1  0
 12 36  1  0
 12 37  1  0
 12 38  1  0
 13 39  1  0
 14 40  1  0
 14 41  1  0
 14 42  1  0
 21 43  1  0
 22 44  1  0
 22 45  1  0
 22 46  1  0
 24 47  1  0
 25 48  1  0
 27 49  1  0
 29 50  1  0
M  END
> <Name>
CHEMBL3093452

> <IC50 nM>
10

> <Molecule_ChEMBL_ID>
CHEMBL3093452

> <Smiles>
Cc1cc(C)c(S(=O)(=O)NC(Cc2c[nH]c3c(C#N)cccc23)C(F)(F)F)c(C)c1

$$$$
CHEMBL373497
  SciTegic08162514323D

 55 58  0  0  1  0            999 V2000
   -1.3010    3.0630   -0.6400 F   0  0
   -1.4610    1.7400   -0.9590 C   0  0
   -2.7360    1.3460   -0.6480 F   0  0
   -1.2420    1.5630   -2.3010 F   0  0
   -0.4610    0.8980   -0.1640 C   0  0  1  0  0  0
    0.8380    1.3630   -0.4590 O   0  0
   -0.6740    1.0000    1.3460 C   0  0
   -0.5860   -0.5330   -0.6830 C   0  0
   -0.6130    2.4080    1.7970 N   0  0
    0.7690   -1.1720   -0.9900 C   0  0
   -1.7540    3.1270    2.0430 C   0  0
    0.6440    2.9610    1.9570 C   0  0
    0.6370   -2.6020   -1.3080 C   0  0
    1.5430   -0.4220   -2.0760 C   0  0
    1.6050   -1.4140    0.2680 C   0  0
   -1.6640    4.4880    2.4770 C   0  0
   -3.0490    2.5530    1.8790 C   0  0
    0.8260    4.2360    2.3620 C   0  0
    1.8050   -3.3590   -1.5920 C   0  0
   -0.6490   -3.1880   -1.3280 C   0  0
   -0.3220    5.1170    2.6540 C   0  0
   -2.8340    5.2420    2.7370 C   0  0
   -4.2130    3.3110    2.1410 C   0  0
    3.0800   -2.9750   -1.6150 O   0  0
    1.6560   -4.7210   -1.8980 C   0  0
   -0.7830   -4.5550   -1.6330 C   0  0
   -0.0800    6.2480    3.0080 O   0  0
   -4.1060    4.6520    2.5690 C   0  0
    3.9410   -4.0780   -1.9390 C   0  0
    0.3690   -5.3160   -1.9160 C   0  0
    3.0180   -5.3110   -2.1660 C   0  0
    1.4060    1.1130    0.2850 H   0  0
    0.0780    0.4200    1.8810 H   0  0
   -1.6370    0.5740    1.6290 H   0  0
   -1.1520   -1.1480    0.0160 H   0  0
   -1.2360   -0.5720   -1.5580 H   0  0
    1.5330    2.3790    1.7600 H   0  0
    1.9340   -1.0980   -2.8360 H   0  0
    2.3850    0.1190   -1.6440 H   0  0
    0.9000    0.3050   -2.5740 H   0  0
    2.6660   -1.4550    0.0240 H   0  0
    1.4370   -0.6230    1.0000 H   0  0
    1.3340   -2.3610    0.7330 H   0  0
   -3.1720    1.5290    1.5550 H   0  0
    1.8320    4.6170    2.4710 H   0  0
   -1.5250   -2.5940   -1.1110 H   0  0
   -2.7660    6.2720    3.0630 H   0  0
   -5.1880    2.8610    2.0140 H   0  0
   -1.7600   -5.0160   -1.6480 H   0  0
   -4.9980    5.2290    2.7680 H   0  0
    4.6290   -4.2340   -1.1190 H   0  0
    4.5140   -3.8280   -2.8220 H   0  0
    0.2690   -6.3650   -2.1500 H   0  0
    3.2340   -6.1130   -1.4760 H   0  0
    3.0800   -5.6820   -3.1780 H   0  0
  1  2  1  0
  2  3  1  0
  2  4  1  0
  2  5  1  0
  5  6  1  0
  5  7  1  0
  5  8  1  0
  7  9  1  0
  8 10  1  0
  9 11  1  0
  9 12  1  0
 10 13  1  0
 10 14  1  0
 10 15  1  0
 11 16  2  0
 11 17  1  0
 12 18  2  0
 13 19  2  0
 13 20  1  0
 16 21  1  0
 16 22  1  0
 17 23  2  0
 19 24  1  0
 19 25  1  0
 20 26  2  0
 21 27  2  0
 22 28  2  0
 24 29  1  0
 25 30  2  0
 25 31  1  0
 18 21  1  0
 23 28  1  0
 26 30  1  0
 29 31  1  0
  6 32  1  0
  7 33  1  0
  7 34  1  0
  8 35  1  0
  8 36  1  0
 12 37  1  0
 14 38  1  0
 14 39  1  0
 14 40  1  0
 15 41  1  0
 15 42  1  0
 15 43  1  0
 17 44  1  0
 18 45  1  0
 20 46  1  0
 22 47  1  0
 23 48  1  0
 26 49  1  0
 28 50  1  0
 29 51  1  0
 29 52  1  0
 30 53  1  0
 31 54  1  0
 31 55  1  0
M  END
> <Name>
CHEMBL373497

> <IC50 nM>
4

> <Molecule_ChEMBL_ID>
CHEMBL373497

> <Smiles>
CC(C)(CC(O)(Cn1ccc(=O)c2ccccc21)C(F)(F)F)c1cccc2c1OCC2

$$$$
CHEMBL1668066
  SciTegic08162514323D

 63 66  0  0  1  0            999 V2000
   -0.3420   -3.9690    0.2030 S   0  0
   -1.3200   -5.0410    0.1940 O   0  0
    0.5230   -3.9730   -0.9630 O   0  0
   -1.2500   -2.4880    0.1210 N   0  0
    0.6450   -4.1450    1.6130 C   0  0
   -2.0290   -2.2330   -1.0800 C   0  0  2  0  0  0
    0.8810   -5.4240    2.1490 C   0  0
    1.2070   -3.0080    2.2250 C   0  0
   -2.3960   -0.7500   -1.1740 C   0  0
   -3.2520   -3.1470   -1.1290 C   0  0
    1.6840   -5.5670    3.2950 C   0  0
    0.2890   -6.6290    1.5100 C   0  0
    2.0080   -3.1540    3.3710 C   0  0
    0.9610   -1.6540    1.6620 C   0  0
   -1.1910    0.0820   -1.3120 N   0  0
    2.2460   -4.4320    3.9060 C   0  0
   -1.3050    1.4240   -1.3810 C   0  0
    3.0940   -4.5840    5.1190 C   0  0
   -0.0740    2.1520   -1.4900 C   0  0
   -2.5490    2.1070   -1.3510 C   0  0
   -0.1500    3.5370   -1.5620 C   0  0
    1.2030    1.5920   -1.5270 C   0  0
   -2.5780    3.5230   -1.4320 C   0  0
    1.1520    3.9060   -1.6540 N   0  0
   -1.3690    4.2560   -1.5370 C   0  0
    1.9180    2.7660   -1.6330 N   0  0
   -3.8670    4.2340   -1.4020 C   0  0
    1.6370    5.1720   -1.7520 C   0  0
    2.6470    5.4730   -2.6850 C   0  0
    1.1310    6.1870   -0.9180 C   0  0
    3.1490    6.7830   -2.7850 C   0  0
    1.6330    7.4960   -1.0190 C   0  0
    4.1020    7.0660   -3.6680 F   0  0
    2.6410    7.7950   -1.9510 C   0  0
   -1.8810   -2.4260    0.9320 H   0  0
   -1.3140   -2.5020   -1.8570 H   0  0
   -2.9530   -0.4340   -0.2930 H   0  0
   -3.0550   -0.5700   -2.0230 H   0  0
   -2.9510   -4.1900   -1.2240 H   0  0
   -3.8570   -3.0310   -0.2300 H   0  0
   -3.8810   -2.9030   -1.9860 H   0  0
    1.8650   -6.5490    3.7070 H   0  0
    0.3650   -6.6430    0.4220 H   0  0
   -0.7680   -6.6960    1.7700 H   0  0
    0.7830   -7.5240    1.8910 H   0  0
    2.4410   -2.2830    3.8400 H   0  0
    1.0370   -1.5980    0.5780 H   0  0
    1.6780   -0.9490    2.0860 H   0  0
   -0.0390   -1.3200    1.9440 H   0  0
   -0.2890   -0.3460   -1.3530 H   0  0
    3.4830   -3.6470    5.5140 H   0  0
    3.9430   -5.2270    4.8890 H   0  0
    2.5160   -5.0650    5.9080 H   0  0
   -3.4750    1.5530   -1.2690 H   0  0
    1.5800    0.5780   -1.4920 H   0  0
   -1.3790    5.3340   -1.5980 H   0  0
   -4.7360    3.5820   -1.3180 H   0  0
   -3.9770    4.8220   -2.3120 H   0  0
   -3.8830    4.9220   -0.5560 H   0  0
    3.0470    4.7030   -3.3340 H   0  0
    0.3560    5.9780   -0.1930 H   0  0
    1.2440    8.2730   -0.3790 H   0  0
    3.0240    8.8030   -2.0250 H   0  0
  1  2  2  0
  1  3  2  0
  1  4  1  0
  1  5  1  0
  4  6  1  0
  5  7  2  0
  5  8  1  0
  6  9  1  0
  6 10  1  0
  7 11  1  0
  7 12  1  0
  8 13  2  0
  8 14  1  0
  9 15  1  0
 11 16  2  0
 15 17  1  0
 16 18  1  0
 17 19  2  0
 17 20  1  0
 19 21  1  0
 19 22  1  0
 20 23  2  0
 21 24  1  0
 21 25  2  0
 22 26  2  0
 23 27  1  0
 24 28  1  0
 28 29  2  0
 28 30  1  0
 29 31  1  0
 30 32  2  0
 31 33  1  0
 31 34  2  0
 13 16  1  0
 23 25  1  0
 24 26  1  0
 32 34  1  0
  4 35  1  0
  6 36  1  0
  9 37  1  0
  9 38  1  0
 10 39  1  0
 10 40  1  0
 10 41  1  0
 11 42  1  0
 12 43  1  0
 12 44  1  0
 12 45  1  0
 13 46  1  0
 14 47  1  0
 14 48  1  0
 14 49  1  0
 15 50  1  0
 18 51  1  0
 18 52  1  0
 18 53  1  0
 20 54  1  0
 22 55  1  0
 25 56  1  0
 27 57  1  0
 27 58  1  0
 27 59  1  0
 29 60  1  0
 30 61  1  0
 32 62  1  0
 34 63  1  0
M  END
> <Name>
CHEMBL1668066

> <IC50 nM>
15.85

> <Molecule_ChEMBL_ID>
CHEMBL1668066

> <Smiles>
Cc1cc(C)c(S(=O)(=O)N[C@@H](C)CNc2cc(C)cc3c2cnn3-c2cccc(F)c2)c(C)c1

$$$$
CHEMBL380646
  SciTegic08162514323D

 56 59  0  0  0  0            999 V2000
    2.7340    0.6970    3.8340 Cl  0  0
    3.7660    1.0350    2.4900 C   0  0
    5.1250    0.6540    2.5570 C   0  0
    3.2790    1.6840    1.3260 C   0  0
    5.6110    0.0530    3.6270 O   0  0
    5.9830    0.9160    1.4750 C   0  0
    1.8890    2.0980    1.2050 C   0  0
    4.1500    1.9400    0.2520 C   0  0
    5.4960    1.5570    0.3260 C   0  0
    0.8550    1.1290    1.1560 C   0  0
    1.5570    3.4710    1.1350 C   0  0
   -0.5020    1.5290    1.0370 C   0  0
    0.2070    3.8770    1.0180 C   0  0
   -0.8340    2.9120    0.9670 C   0  0
   -1.5860    0.5060    0.9860 C   0  0
   -2.1250    3.3150    0.8520 N   0  0
   -2.8710    0.8990    0.8770 C   0  0
   -1.2790   -0.9710    1.0570 C   0  0
   -3.2730    2.3610    0.7990 C   0  0
   -0.4120   -1.4800   -0.4530 S   0  0
   -4.0250    2.5800   -0.5160 C   0  0
   -4.2070    2.6600    1.9750 C   0  0
   -0.1950   -3.2400   -0.0660 C   0  0
    0.5350   -3.9650   -1.1970 C   0  0
   -0.2340   -3.9120   -2.4670 C   0  0
   -1.2910   -4.8140   -2.6880 C   0  0
    0.0920   -2.9590   -3.4490 C   0  0
   -2.0180   -4.7660   -3.8890 C   0  0
   -0.6370   -2.9100   -4.6500 C   0  0
   -1.6910   -3.8120   -4.8710 C   0  0
    5.0270   -0.1310    4.3730 H   0  0
    7.0220    0.6250    1.5250 H   0  0
    3.7950    2.4340   -0.6430 H   0  0
    6.1600    1.7560   -0.5040 H   0  0
    1.1070    0.0780    1.2090 H   0  0
    2.3280    4.2270    1.1720 H   0  0
   -0.0160    4.9340    0.9650 H   0  0
   -2.3400    4.2930    0.8010 H   0  0
   -3.6480    0.1490    0.8400 H   0  0
   -2.2050   -1.5370    1.1520 H   0  0
   -0.6520   -1.1780    1.9240 H   0  0
   -3.3970    2.3770   -1.3830 H   0  0
   -4.3770    3.6090   -0.5920 H   0  0
   -4.8950    1.9260   -0.5760 H   0  0
   -3.6930    2.5020    2.9240 H   0  0
   -4.5630    3.6900    1.9320 H   0  0
   -5.0760    2.0060    1.9530 H   0  0
   -1.1680   -3.6950    0.1170 H   0  0
    0.3520   -3.3420    0.8710 H   0  0
    0.7270   -5.0040   -0.9300 H   0  0
    1.5250   -3.5350   -1.3540 H   0  0
   -1.5470   -5.5490   -1.9380 H   0  0
    0.9020   -2.2640   -3.2870 H   0  0
   -2.8280   -5.4590   -4.0590 H   0  0
   -0.3870   -2.1800   -5.4040 H   0  0
   -2.2520   -3.7750   -5.7930 H   0  0
  1  2  1  0
  2  3  2  0
  2  4  1  0
  3  5  1  0
  3  6  1  0
  4  7  1  0
  4  8  2  0
  6  9  2  0
  7 10  2  0
  7 11  1  0
 10 12  1  0
 11 13  2  0
 12 14  2  0
 12 15  1  0
 14 16  1  0
 15 17  2  0
 15 18  1  0
 16 19  1  0
 18 20  1  0
 19 21  1  0
 19 22  1  0
 20 23  1  0
 23 24  1  0
 24 25  1  0
 25 26  2  0
 25 27  1  0
 26 28  1  0
 27 29  2  0
 28 30  2  0
  8  9  1  0
 13 14  1  0
 17 19  1  0
 29 30  1  0
  5 31  1  0
  6 32  1  0
  8 33  1  0
  9 34  1  0
 10 35  1  0
 11 36  1  0
 13 37  1  0
 16 38  1  0
 17 39  1  0
 18 40  1  0
 18 41  1  0
 21 42  1  0
 21 43  1  0
 21 44  1  0
 22 45  1  0
 22 46  1  0
 22 47  1  0
 23 48  1  0
 23 49  1  0
 24 50  1  0
 24 51  1  0
 26 52  1  0
 27 53  1  0
 28 54  1  0
 29 55  1  0
 30 56  1  0
M  END
> <Name>
CHEMBL380646

> <IC50 nM>
220

> <Molecule_ChEMBL_ID>
CHEMBL380646

> <Smiles>
CC1(C)C=C(CSCCc2ccccc2)c2cc(-c3cccc(O)c3Cl)ccc2N1

$$$$
CHEMBL205926
  SciTegic08162514323D

 52 54  0  0  0  0            999 V2000
   -1.3420   -1.9340    1.3850 S   0  0
   -1.6820   -1.4690   -0.3360 C   0  0
   -1.0820   -3.7150    1.1430 C   0  0
   -1.9880    0.0080   -0.4060 C   0  0
   -0.8090   -4.4140    2.4750 C   0  0
   -0.9020    1.0310   -0.3550 C   0  0
   -3.2730    0.4020   -0.5160 C   0  0
    0.4810   -3.9300    3.1430 C   0  0
   -1.2360    2.4140   -0.4260 C   0  0
    0.4530    0.6310   -0.2360 C   0  0
   -3.6760    1.8650   -0.5940 C   0  0
   -2.5270    2.8160   -0.5410 N   0  0
   -0.1950    3.3790   -0.3750 C   0  0
    1.4860    1.6000   -0.1870 C   0  0
   -4.4280    2.0820   -1.9080 C   0  0
   -4.6090    2.1620    0.5820 C   0  0
    1.1540    2.9750   -0.2580 C   0  0
    2.8770    1.1860   -0.0660 C   0  0
    3.4360    0.2660   -0.9780 C   0  0
    3.6680    1.7110    0.9750 C   0  0
    2.7150   -0.2420   -1.9630 O   0  0
    4.7790   -0.1210   -0.8420 C   0  0
    5.0100    1.3200    1.1060 C   0  0
    3.3560   -1.1250   -2.8710 C   0  0
    5.5670    0.4040    0.1970 C   0  0
   -2.5310   -2.0410   -0.7050 H   0  0
   -0.8120   -1.6950   -0.9510 H   0  0
   -1.9550   -4.1470    0.6540 H   0  0
   -0.2560   -3.8690    0.4490 H   0  0
   -1.6560   -4.3030    3.1500 H   0  0
   -0.7930   -5.4960    2.3460 H   0  0
   -4.0510   -0.3500   -0.5530 H   0  0
    0.6490   -4.4570    4.0800 H   0  0
    1.3360   -4.0880    2.4860 H   0  0
    0.4220   -2.8650    3.3630 H   0  0
    0.7050   -0.4180   -0.1840 H   0  0
   -2.7420    3.7950   -0.5920 H   0  0
   -0.4180    4.4360   -0.4280 H   0  0
   -3.7990    1.8810   -2.7750 H   0  0
   -4.7790    3.1110   -1.9840 H   0  0
   -5.2970    1.4280   -1.9690 H   0  0
   -4.1110    2.0200    1.5430 H   0  0
   -5.4800    1.5100    0.5590 H   0  0
   -4.9630    3.1930    0.5410 H   0  0
    1.9260    3.7290   -0.2210 H   0  0
    3.2540    2.4160    1.6840 H   0  0
    5.2130   -0.8240   -1.5370 H   0  0
    5.6150    1.7250    1.9040 H   0  0
    2.7460   -1.5120   -3.6880 H   0  0
    3.7360   -1.9770   -2.3090 H   0  0
    4.2090   -0.6060   -3.3090 H   0  0
    6.6000    0.1030    0.2970 H   0  0
  1  2  1  0
  1  3  1  0
  2  4  1  0
  3  5  1  0
  4  6  1  0
  4  7  2  0
  5  8  1  0
  6  9  2  0
  6 10  1  0
  7 11  1  0
  9 12  1  0
  9 13  1  0
 10 14  2  0
 11 15  1  0
 11 16  1  0
 13 17  2  0
 14 18  1  0
 18 19  2  0
 18 20  1  0
 19 21  1  0
 19 22  1  0
 20 23  2  0
 21 24  1  0
 22 25  2  0
 11 12  1  0
 14 17  1  0
 23 25  1  0
  2 26  1  0
  2 27  1  0
  3 28  1  0
  3 29  1  0
  5 30  1  0
  5 31  1  0
  7 32  1  0
  8 33  1  0
  8 34  1  0
  8 35  1  0
 10 36  1  0
 12 37  1  0
 13 38  1  0
 15 39  1  0
 15 40  1  0
 15 41  1  0
 16 42  1  0
 16 43  1  0
 16 44  1  0
 17 45  1  0
 20 46  1  0
 22 47  1  0
 23 48  1  0
 24 49  1  0
 24 50  1  0
 24 51  1  0
 25 52  1  0
M  END
> <Name>
CHEMBL205926

> <IC50 nM>
1015

> <Molecule_ChEMBL_ID>
CHEMBL205926

> <Smiles>
CCCSCC1=CC(C)(C)Nc2ccc(-c3ccccc3OC)cc21

$$$$
CHEMBL397920
  SciTegic08162514323D

 63 67  0  0  0  0            999 V2000
    2.7190   -1.7600   -2.6760 S   0  0
    1.5620   -0.5140   -2.5920 C   0  0
    3.2790   -1.2680   -4.1990 C   0  0
    1.6000    0.2990   -3.7420 C   0  0
    0.6640   -0.3340   -1.4610 C   0  0
    2.5840   -0.1390   -4.6560 C   0  0
    0.7340    1.4470   -3.9690 C   0  0
    0.9320   -0.8400   -0.2340 C   0  0
    0.3730    2.2270   -3.0180 N   0  0
    0.2440    1.7360   -5.3630 C   0  0
    2.1370   -1.4040   -0.1000 O   0  0
   -0.0220   -0.7030    0.9140 C   0  0
   -0.4830    3.3460   -3.2930 O   0  0
    2.6660   -1.6370    1.1210 C   0  0
   -1.4360   -0.4860    0.7810 C   0  0
    0.5660   -0.7870    2.2130 C   0  0
   -0.6040    4.0270   -2.0530 C   0  0
    1.9570   -1.3340    2.3340 C   0  0
    3.9670   -2.1910    1.1680 C   0  0
   -2.1520    0.0510    1.8890 C   0  0
   -2.2150   -0.8380   -0.4570 C   0  0
   -0.2030   -0.3400    3.3260 C   0  0
    2.6190   -1.5840    3.5820 C   0  0
    4.5980   -2.4300    2.4020 C   0  0
   -3.4300    0.4880    1.7460 N   0  0
   -1.5260    0.1130    3.1560 C   0  0
   -3.4550   -0.3340   -0.6210 C   0  0
   -1.7030   -1.7850   -1.5160 C   0  0
    2.0510   -1.3440    4.7700 O   0  0
    3.9300   -2.1190    3.6060 C   0  0
   -4.0960    0.5720    0.4140 C   0  0
    2.6050   -0.3180    5.5800 C   0  0
    4.5450   -2.3420    4.7770 O   0  0
   -4.0180    2.0180   -0.0860 C   0  0
   -5.5650    0.1640    0.5700 C   0  0
    4.0740   -1.7680   -4.7380 H   0  0
   -0.2330    0.2400   -1.6450 H   0  0
    2.7810    0.3420   -5.6060 H   0  0
   -0.8360    1.8690   -5.4260 H   0  0
    0.5170    0.9180   -6.0290 H   0  0
    0.7150    2.6450   -5.7400 H   0  0
   -1.1920    4.9320   -2.2170 H   0  0
   -0.9940    3.3260   -1.3140 H   0  0
    0.3920    4.3320   -1.7300 H   0  0
    4.4840   -2.4340    0.2520 H   0  0
    0.1660   -0.3100    4.3360 H   0  0
    5.5920   -2.8520    2.4300 H   0  0
   -3.9510    0.7850    2.5490 H   0  0
   -2.0570    0.5040    4.0160 H   0  0
   -4.0180   -0.5840   -1.5120 H   0  0
   -0.7910   -2.3070   -1.2270 H   0  0
   -1.4940   -1.2360   -2.4340 H   0  0
   -2.4590   -2.5350   -1.7400 H   0  0
    2.7970    0.6390    5.0940 H   0  0
    3.5490   -0.6800    5.9880 H   0  0
    1.9280   -0.1390    6.4140 H   0  0
    5.4370   -2.7070    4.7790 H   0  0
   -2.9860    2.3650   -0.1580 H   0  0
   -4.5490    2.6880    0.5880 H   0  0
   -4.4690    2.1080   -1.0720 H   0  0
   -5.6660   -0.8610    0.9260 H   0  0
   -6.0900    0.2420   -0.3810 H   0  0
   -6.0720    0.8160    1.2830 H   0  0
  1  2  1  0
  1  3  1  0
  2  4  2  0
  2  5  1  0
  3  6  2  0
  4  7  1  0
  5  8  2  0
  7  9  2  0
  7 10  1  0
  8 11  1  0
  8 12  1  0
  9 13  1  0
 11 14  1  0
 12 15  2  0
 12 16  1  0
 13 17  1  0
 14 18  2  0
 14 19  1  0
 15 20  1  0
 15 21  1  0
 16 22  2  0
 18 23  1  0
 19 24  2  0
 20 25  1  0
 20 26  2  0
 21 27  2  0
 21 28  1  0
 23 29  1  0
 23 30  2  0
 25 31  1  0
 29 32  1  0
 30 33  1  0
 31 34  1  0
 31 35  1  0
  4  6  1  0
 16 18  1  0
 22 26  1  0
 24 30  1  0
 27 31  1  0
  3 36  1  0
  5 37  1  0
  6 38  1  0
 10 39  1  0
 10 40  1  0
 10 41  1  0
 17 42  1  0
 17 43  1  0
 17 44  1  0
 19 45  1  0
 22 46  1  0
 24 47  1  0
 25 48  1  0
 26 49  1  0
 27 50  1  0
 28 51  1  0
 28 52  1  0
 28 53  1  0
 32 54  1  0
 32 55  1  0
 32 56  1  0
 33 57  1  0
 34 58  1  0
 34 59  1  0
 34 60  1  0
 35 61  1  0
 35 62  1  0
 35 63  1  0
M  END
> <Name>
CHEMBL397920

> <IC50 nM>
0.2

> <Molecule_ChEMBL_ID>
CHEMBL397920

> <Smiles>
CO/N=C(\C)c1ccsc1/C=C1\Oc2ccc(O)c(OC)c2-c2ccc3c(c21)C(C)=CC(C)(C)N3

$$$$
CHEMBL245191
  SciTegic08162514323D

 43 45  0  0  1  0            999 V2000
    4.7190   -1.2580    2.6660 Cl  0  0
    3.5510   -0.0920    3.1430 C   0  0
    2.4670    0.2270    2.2970 C   0  0
    3.6800    0.5490    4.3870 C   0  0
    2.3030   -0.5620    0.7640 S   0  0
    1.5180    1.1860    2.7030 C   0  0
    2.7320    1.5040    4.7930 C   0  0
    2.8850   -1.8890    0.8670 O   0  0
    2.9390    0.2640   -0.2460 O   0  0
    0.6640   -0.7990    0.2290 N   0  0
    0.1910    1.5900    1.6890 Cl  0  0
    1.6520    1.8240    3.9490 C   0  0
    2.8930    2.2810    6.3150 Cl  0  0
    0.4550   -1.3790   -1.0880 C   0  0  2  0  0  0
   -1.0140   -1.2620   -1.4960 C   0  0
    0.9630   -2.8200   -1.1250 C   0  0
   -1.4450    0.1900   -1.5880 C   0  0
    2.2440   -2.9730   -1.9450 C   0  0
   -2.7050    0.6800   -1.6230 C   0  0
   -0.6000    1.3130   -1.6520 C   0  0
   -2.7310    2.0490   -1.7070 C   0  0
   -3.9020   -0.0760   -1.5840 C   0  0
   -1.4100    2.4730   -1.7270 N   0  0
   -3.9490    2.7680   -1.7580 C   0  0
   -5.1410    0.6170   -1.6310 C   0  0
   -5.1640    2.0350   -1.7190 C   0  0
    4.5120    0.3070    5.0370 H   0  0
    0.1560   -1.3710    0.9180 H   0  0
    0.9260    2.5610    4.2620 H   0  0
    1.0780   -0.7320   -1.7050 H   0  0
   -1.6540   -1.7870   -0.7870 H   0  0
   -1.1890   -1.7540   -2.4530 H   0  0
    1.1050   -3.2050   -0.1150 H   0  0
    0.1890   -3.4920   -1.4920 H   0  0
    2.5960   -4.0040   -1.9240 H   0  0
    2.0760   -2.6760   -2.9810 H   0  0
    3.0370   -2.3420   -1.5430 H   0  0
    0.4820    1.3320   -1.6480 H   0  0
   -3.8870   -1.1540   -1.5180 H   0  0
   -1.0900    3.4120   -1.7830 H   0  0
   -3.9570    3.8460   -1.8240 H   0  0
   -6.0680    0.0640   -1.6020 H   0  0
   -6.1080    2.5570   -1.7540 H   0  0
  1  2  1  0
  2  3  2  0
  2  4  1  0
  3  5  1  0
  3  6  1  0
  4  7  2  0
  5  8  2  0
  5  9  2  0
  5 10  1  0
  6 11  1  0
  6 12  2  0
  7 13  1  0
 14 10  1  0
 14 15  1  0
 14 16  1  0
 15 17  1  0
 16 18  1  0
 17 19  1  0
 17 20  2  0
 19 21  1  0
 19 22  2  0
 20 23  1  0
 21 24  2  0
 22 25  1  0
 24 26  1  0
  7 12  1  0
 21 23  1  0
 25 26  2  0
  4 27  1  0
 10 28  1  0
 12 29  1  0
 14 30  1  0
 15 31  1  0
 15 32  1  0
 16 33  1  0
 16 34  1  0
 18 35  1  0
 18 36  1  0
 18 37  1  0
 20 38  1  0
 22 39  1  0
 23 40  1  0
 24 41  1  0
 25 42  1  0
 26 43  1  0
M  END
> <Name>
CHEMBL245191

> <IC50 nM>
64

> <Molecule_ChEMBL_ID>
CHEMBL245191

> <Smiles>
CCC(Cc1c[nH]c2ccccc12)NS(=O)(=O)c1c(Cl)cc(Cl)cc1Cl

$$$$
CHEMBL1911658
  SciTegic08162514323D

 53 56  0  0  1  0            999 V2000
    2.1680    4.4280   -0.7970 Br  0  0
    0.5780    3.4650   -1.1090 C   0  0
    0.5720    2.0570   -1.0370 C   0  0
   -0.6210    4.1450   -1.4180 C   0  0
   -0.6290    1.3520   -1.2750 C   0  0
   -1.8220    3.4300   -1.6560 C   0  0
   -1.8400    2.0270   -1.5880 C   0  0
   -0.6290   -0.1170   -1.1990 C   0  0
   -3.2070    3.9160   -1.9960 C   0  0
   -3.0490    1.5250   -1.8380 O   0  0
    0.7910   -0.6840   -1.2690 C   0  0
   -1.5620   -0.7340   -2.2400 C   0  0
   -1.2090   -0.1560    0.2150 C   0  0
   -3.9920    2.5760   -2.1070 C   0  0
    0.8200   -2.2110   -1.1930 C   0  0  1  0  0  0
   -0.4080   -2.6480   -0.6600 O   0  0
    0.9260   -2.7170   -2.6310 C   0  0
    1.9430   -2.7340   -0.2990 C   0  0
    0.2010   -3.8750   -2.7640 F   0  0
    2.2400   -2.9650   -2.9340 F   0  0
    0.4300   -1.7680   -3.4880 F   0  0
    1.8790   -2.1170    1.0820 C   0  0
    1.1500   -2.6860    2.1560 N   0  0
    2.4880   -0.9340    1.5390 C   0  0
    1.3220   -1.8520    3.2480 C   0  0
    2.1270   -0.8200    2.8360 C   0  0
    0.8320   -1.9240    4.5720 C   0  0
    2.5040    0.2190    3.7210 C   0  0
    1.1910   -0.8940    5.4830 C   0  0
    2.0250    0.1740    5.0570 C   0  0
    1.4770    1.5120   -0.8030 H   0  0
   -0.6390    5.2230   -1.4780 H   0  0
   -3.2050    4.4630   -2.9280 H   0  0
   -3.5960    4.5510   -1.2130 H   0  0
    1.4180   -0.2460   -0.4940 H   0  0
    1.3010   -0.3320   -2.1660 H   0  0
   -2.6110   -0.6110   -1.9690 H   0  0
   -1.3690   -1.8030   -2.3460 H   0  0
   -1.4140   -0.2710   -3.2150 H   0  0
   -1.9370    0.6430    0.3540 H   0  0
   -1.6930   -1.1150    0.4040 H   0  0
   -0.4240   -0.0270    0.9570 H   0  0
   -4.7970    2.5160   -1.3890 H   0  0
   -4.4020    2.4280   -3.0980 H   0  0
   -0.3400   -2.5920    0.3050 H   0  0
    2.9180   -2.5290   -0.7440 H   0  0
    1.8950   -3.8200   -0.2150 H   0  0
    0.6150   -3.5250    2.1290 H   0  0
    3.1150   -0.2620    0.9670 H   0  0
    0.1990   -2.7420    4.8870 H   0  0
    3.1390    1.0310    3.3950 H   0  0
    0.8300   -0.9260    6.4980 H   0  0
    2.2970    0.9570    5.7500 H   0  0
  1  2  1  0
  2  3  2  0
  2  4  1  0
  3  5  1  0
  4  6  2  0
  5  7  2  0
  5  8  1  0
  6  9  1  0
  7 10  1  0
  8 11  1  0
  8 12  1  0
  8 13  1  0
  9 14  1  0
 11 15  1  0
 15 16  1  0
 15 17  1  0
 15 18  1  0
 17 19  1  0
 17 20  1  0
 17 21  1  0
 18 22  1  0
 22 23  1  0
 22 24  2  0
 23 25  1  0
 24 26  1  0
 25 27  1  0
 26 28  1  0
 27 29  2  0
 28 30  2  0
  6  7  1  0
 10 14  1  0
 25 26  2  0
 29 30  1  0
  3 31  1  0
  4 32  1  0
  9 33  1  0
  9 34  1  0
 11 35  1  0
 11 36  1  0
 12 37  1  0
 12 38  1  0
 12 39  1  0
 13 40  1  0
 13 41  1  0
 13 42  1  0
 14 43  1  0
 14 44  1  0
 16 45  1  0
 18 46  1  0
 18 47  1  0
 23 48  1  0
 24 49  1  0
 27 50  1  0
 28 51  1  0
 29 52  1  0
 30 53  1  0
M  END
> <Name>
CHEMBL1911658

> <IC50 nM>
32

> <Molecule_ChEMBL_ID>
CHEMBL1911658

> <Smiles>
CC(C)(CC(O)(Cc1cc2ccccc2[nH]1)C(F)(F)F)c1cc(Br)cc2c1OCC2

$$$$
CHEMBL489788
  SciTegic08162514323D

 43 46  0  0  1  0            999 V2000
    4.5230   -2.3980    1.9590 O   0  0
    3.5980   -1.7320    1.5570 C   0  0
    2.3480   -2.3030    1.4790 N   0  0
    3.8570   -0.3070    1.1600 C   0  0
    1.1740   -1.7500    1.0490 C   0  0
    3.0100    0.5290    1.9160 O   0  0
    0.8650   -0.3340    0.9550 C   0  0
    0.1760   -2.7010    0.6640 C   0  0
    1.7500    0.8260    1.3400 C   0  0  2  0  0  0
   -0.4180    0.0450    0.4570 C   0  0
   -1.0900   -2.3090    0.1840 C   0  0
    1.9860    1.7050    0.1190 C   0  0
    1.0660    1.6760    2.4180 C   0  0
   -1.3540   -0.9350    0.0900 C   0  0
    1.8090    1.2360   -1.1500 O   0  0
    2.3980    3.0430    0.1330 C   0  0
   -2.6760   -0.5020   -0.4180 C   0  0
    2.1150    2.3010   -1.9470 C   0  0
    2.4800    3.4280   -1.2050 C   0  0
   -3.2380   -0.8590   -1.6010 N   0  0
   -3.4650    0.3610    0.3560 C   0  0
   -4.4420   -0.2050   -1.6010 C   0  0
   -2.6800   -1.7480   -2.6440 C   0  0
   -4.6170    0.5570   -0.4160 C   0  0
   -5.4550   -0.2250   -2.6190 C   0  0
   -6.2760   -0.2380   -3.4390 N   0  0
    2.3280   -3.2640    1.7640 H   0  0
    4.8830   -0.0410    1.4220 H   0  0
    3.7460   -0.1600    0.0860 H   0  0
    0.3650   -3.7640    0.7310 H   0  0
   -0.6840    1.0900    0.3610 H   0  0
   -1.8260   -3.0450   -0.1010 H   0  0
    0.7970    1.0840    3.2930 H   0  0
    0.1560    2.1330    2.0310 H   0  0
    1.7270    2.4790    2.7520 H   0  0
    2.6090    3.6520    1.0000 H   0  0
    2.0760    2.2660   -3.0270 H   0  0
    2.7700    4.3970   -1.5880 H   0  0
   -3.2480    0.7870    1.3260 H   0  0
   -2.7310   -1.2500   -3.6110 H   0  0
   -1.6640   -2.0350   -2.3710 H   0  0
   -3.2790   -2.6560   -2.7050 H   0  0
   -5.4710    1.1640   -0.1580 H   0  0
  1  2  2  0
  2  3  1  0
  2  4  1  0
  3  5  1  0
  4  6  1  0
  5  7  2  0
  5  8  1  0
  6  9  1  0
  7 10  1  0
  8 11  2  0
  9 12  1  0
  9 13  1  0
 10 14  2  0
 12 15  1  0
 12 16  2  0
 14 17  1  0
 15 18  1  0
 16 19  1  0
 17 20  1  0
 17 21  2  0
 20 22  1  0
 20 23  1  0
 21 24  1  0
 22 25  1  0
 25 26  3  0
  7  9  1  0
 11 14  1  0
 18 19  2  0
 22 24  2  0
  3 27  1  0
  4 28  1  0
  4 29  1  0
  8 30  1  0
 10 31  1  0
 11 32  1  0
 13 33  1  0
 13 34  1  0
 13 35  1  0
 16 36  1  0
 18 37  1  0
 19 38  1  0
 21 39  1  0
 23 40  1  0
 23 41  1  0
 23 42  1  0
 24 43  1  0
M  END
> <Name>
CHEMBL489788

> <IC50 nM>
120

> <Molecule_ChEMBL_ID>
CHEMBL489788

> <Smiles>
Cn1c(C#N)ccc1-c1ccc2c(c1)C(C)(c1ccco1)OCC(=O)N2

$$$$
CHEMBL1940689
  SciTegic08162514323D

 69 74  0  0  1  0            999 V2000
    4.6110    1.8730   -0.4430 S   0  0
    5.9430    1.2970    0.4180 C   0  0
    3.5100    0.5140   -0.4000 C   0  0
    6.8630    1.7560    1.3630 O   0  0
    6.1580   -0.0310    0.0550 N   0  0
    2.1190    0.9840   -0.7360 C   0  0
    7.6230    0.6660    1.5410 C   0  0
    7.2270   -0.4040    0.7790 C   0  0
    1.8870    2.1560   -0.9160 O   0  0
    1.0250   -0.0530   -0.8400 C   0  0  2  0  0  0
    8.7290    0.5980    2.4200 C   0  0
    7.9180   -1.6370    0.8440 C   0  0
    1.1310   -0.6470   -2.1250 O   0  0
   -0.4000    0.5000   -0.6020 C   0  0  2  0  0  0
    1.0940   -1.1430    0.2600 C   0  0  1  0  0  0
    9.4400   -0.6290    2.5000 C   0  0
    9.0350   -1.7420    1.7150 C   0  0
   -1.2210   -0.7910   -0.4730 C   0  0  1  0  0  0
   -1.0590    1.3280   -1.7210 C   0  0
   -0.3670    1.2770    0.7270 C   0  0
   -0.3420   -1.6720    0.4160 C   0  0
    2.1090   -2.2620    0.0250 C   0  0
   -2.6500   -0.5180    0.0290 C   0  0  1  0  0  0
   -2.5370    1.6620   -1.3970 C   0  0  1  0  0  0
   -3.3930    0.4280   -0.9530 C   0  0  2  0  0  0
   -3.4220   -1.8460    0.1700 C   0  0
   -2.5720    2.6950   -0.4300 O   0  0
   -4.8320    0.7540   -0.4240 C   0  0  2  0  0  0
   -4.8560   -1.6170    0.6680 C   0  0
   -5.5900   -0.5390   -0.1050 C   0  0
   -5.5840    1.6540   -1.4000 C   0  0
   -4.7890    1.5100    0.9100 C   0  0
   -6.8770   -0.7270   -0.4750 C   0  0
   -6.8650    1.4410   -1.7520 C   0  0
   -7.6080    0.2850   -1.2420 C   0  0
   -8.7930    0.1720   -1.4510 O   0  0
    3.8320   -0.2360   -1.1210 H   0  0
    3.5220    0.0700    0.5960 H   0  0
    9.0260    1.4510    3.0120 H   0  0
    7.6080   -2.4820    0.2460 H   0  0
    2.0220   -1.0230   -2.1930 H   0  0
    1.3610   -0.6680    1.1930 H   0  0
   10.2890   -0.7150    3.1600 H   0  0
    9.5800   -2.6740    1.7810 H   0  0
   -1.2930   -1.2660   -1.4430 H   0  0
   -1.0330    0.7640   -2.6540 H   0  0
   -0.4880    2.2400   -1.9040 H   0  0
   -1.3690    1.4960    1.0940 H   0  0
    0.1580    2.2250    0.6050 H   0  0
    0.1500    0.7030    1.4940 H   0  0
   -0.4390   -2.7110    0.1330 H   0  0
   -0.6500   -1.5980    1.4490 H   0  0
    2.1130   -2.9570    0.8630 H   0  0
    1.8770   -2.8070   -0.8890 H   0  0
    3.1150   -1.8540   -0.0760 H   0  0
   -2.6000   -0.0450    1.0120 H   0  0
   -2.9730    2.0900   -2.2990 H   0  0
   -3.5270   -0.1470   -1.8730 H   0  0
   -3.4490   -2.3670   -0.7890 H   0  0
   -2.9100   -2.5120    0.8650 H   0  0
   -2.2250    3.4960   -0.8520 H   0  0
   -5.4040   -2.5610    0.6290 H   0  0
   -4.8260   -1.3260    1.7190 H   0  0
   -5.0780    2.5060   -1.8360 H   0  0
   -5.7440    1.4650    1.4340 H   0  0
   -4.5490    2.5610    0.7480 H   0  0
   -4.0290    1.0900    1.5680 H   0  0
   -7.3830   -1.6410   -0.2030 H   0  0
   -7.3500    2.1390   -2.4220 H   0  0
  1  2  1  0
  1  3  1  0
  2  4  1  0
  2  5  2  0
  3  6  1  0
  4  7  1  0
  5  8  1  0
  6  9  2  0
  6 10  1  0
  7 11  1  0
  8 12  1  0
 10 13  1  0
 10 14  1  0
 10 15  1  0
 11 16  2  0
 12 17  2  0
 14 18  1  0
 14 19  1  0
 14 20  1  0
 15 21  1  0
 15 22  1  0
 18 23  1  0
 19 24  1  0
 25 23  1  0
 23 26  1  0
 24 27  1  0
 25 28  1  0
 26 29  1  0
 28 30  1  0
 28 31  1  0
 28 32  1  0
 30 33  2  0
 31 34  2  0
 33 35  1  0
 35 36  2  0
  7  8  2  0
 16 17  1  0
 18 21  1  0
 24 25  1  0
 29 30  1  0
 34 35  1  0
  3 37  1  0
  3 38  1  0
 11 39  1  0
 12 40  1  0
 13 41  1  0
 15 42  1  0
 16 43  1  0
 17 44  1  0
 18 45  1  0
 19 46  1  0
 19 47  1  0
 20 48  1  0
 20 49  1  0
 20 50  1  0
 21 51  1  0
 21 52  1  0
 22 53  1  0
 22 54  1  0
 22 55  1  0
 23 56  1  0
 24 57  1  0
 25 58  1  0
 26 59  1  0
 26 60  1  0
 27 61  1  0
 29 62  1  0
 29 63  1  0
 31 64  1  0
 32 65  1  0
 32 66  1  0
 32 67  1  0
 33 68  1  0
 34 69  1  0
M  END
> <Name>
CHEMBL1940689

> <IC50 nM>
4.4

> <Molecule_ChEMBL_ID>
CHEMBL1940689

> <Smiles>
C[C@@H]1C[C@H]2[C@@H]3CCC4=CC(=O)C=C[C@]4(C)[C@H]3[C@@H](O)C[C@]2(C)[C@@]1(O)C(=O)CSc1nc2ccccc2o1

$$$$
CHEMBL216173
  SciTegic08162514323D

 53 55  0  0  1  0            999 V2000
   -1.4750   -6.0140    1.6760 F   0  0
   -0.7710   -5.2950    0.8050 C   0  0
   -1.0270   -3.9220    0.6540 C   0  0
    0.2300   -5.9100    0.0350 C   0  0
   -0.2850   -3.1600   -0.2660 C   0  0
    0.9750   -5.1520   -0.8850 C   0  0
    0.7210   -3.7770   -1.0370 C   0  0
   -0.5700   -1.7070   -0.4120 C   0  0
    1.5180   -2.9900   -2.0160 C   0  0
    0.7600   -1.2680    0.2030 C   0  0
   -1.7750   -1.2830    0.4260 C   0  0
   -0.7030   -1.3050   -1.8810 C   0  0
    0.7560    0.1990    0.6310 C   0  0  1  0  0  0
   -0.3420    0.4040    1.4940 O   0  0
    2.0390    0.4240    1.4300 C   0  0
    0.6190    1.1600   -0.5510 C   0  0
    2.1250   -0.5100    2.4300 F   0  0
    2.0230    1.6800    1.9770 F   0  0
    3.1230    0.3030    0.5980 F   0  0
    0.6800    2.5660   -0.1020 N   0  0
   -0.4610    3.2850    0.1460 C   0  0
    1.9380    3.1210    0.0600 C   0  0
   -0.3690    4.6470    0.5780 C   0  0
   -1.7540    2.7130   -0.0180 C   0  0
    2.1190    4.3950    0.4650 C   0  0
    0.9710    5.2750    0.7580 C   0  0
   -1.5410    5.4020    0.8380 C   0  0
   -2.9200    3.4710    0.2440 C   0  0
    1.2130    6.4080    1.1110 O   0  0
   -2.8130    4.8130    0.6720 C   0  0
   -1.7990   -3.4510    1.2480 H   0  0
    0.4340   -6.9650    0.1460 H   0  0
    1.7440   -5.6310   -1.4730 H   0  0
    1.4430   -3.4510   -3.0000 H   0  0
    1.1800   -1.9530   -2.0100 H   0  0
    2.5680   -3.0000   -1.7230 H   0  0
    1.5840   -1.4670   -0.4830 H   0  0
    1.0290   -1.9140    1.0390 H   0  0
   -2.6450   -1.9160    0.2380 H   0  0
   -2.0590   -0.2540    0.2030 H   0  0
   -1.5450   -1.3420    1.4900 H   0  0
   -1.6990   -0.9280   -2.1110 H   0  0
   -0.5100   -2.1560   -2.5330 H   0  0
    0.0160   -0.5230   -2.1330 H   0  0
   -0.8360    1.1660    1.1520 H   0  0
   -0.3180    0.9900   -1.0780 H   0  0
    1.4080    0.9820   -1.2830 H   0  0
    2.8280    2.5390   -0.1370 H   0  0
   -1.8790    1.6890   -0.3440 H   0  0
    3.1250    4.7750    0.5740 H   0  0
   -1.4730    6.4300    1.1660 H   0  0
   -3.8950    3.0210    0.1170 H   0  0
   -3.7050    5.3870    0.8710 H   0  0
  1  2  1  0
  2  3  2  0
  2  4  1  0
  3  5  1  0
  4  6  2  0
  5  7  2  0
  5  8  1  0
  7  9  1  0
  8 10  1  0
  8 11  1  0
  8 12  1  0
 10 13  1  0
 13 14  1  0
 13 15  1  0
 13 16  1  0
 15 17  1  0
 15 18  1  0
 15 19  1  0
 16 20  1  0
 20 21  1  0
 20 22  1  0
 21 23  2  0
 21 24  1  0
 22 25  2  0
 23 26  1  0
 23 27  1  0
 24 28  2  0
 26 29  2  0
 27 30  2  0
  6  7  1  0
 25 26  1  0
 28 30  1  0
  3 31  1  0
  4 32  1  0
  6 33  1  0
  9 34  1  0
  9 35  1  0
  9 36  1  0
 10 37  1  0
 10 38  1  0
 11 39  1  0
 11 40  1  0
 11 41  1  0
 12 42  1  0
 12 43  1  0
 12 44  1  0
 14 45  1  0
 16 46  1  0
 16 47  1  0
 22 48  1  0
 24 49  1  0
 25 50  1  0
 27 51  1  0
 28 52  1  0
 30 53  1  0
M  END
> <Name>
CHEMBL216173

> <IC50 nM>
10

> <Molecule_ChEMBL_ID>
CHEMBL216173

> <Smiles>
Cc1ccc(F)cc1C(C)(C)CC(O)(Cn1ccc(=O)c2ccccc21)C(F)(F)F

$$$$
CHEMBL365546
  SciTegic08162514323D

 52 56  0  0  1  0            999 V2000
   -7.5000    2.2520   -2.8570 F   0  0
   -6.5470    1.7250   -2.0920 C   0  0
   -5.3650    1.2360   -2.6760 C   0  0
   -6.7230    1.6540   -0.6990 C   0  0
   -4.3570    0.6800   -1.8670 C   0  0
   -5.7170    1.1000    0.1110 C   0  0
   -4.5310    0.6090   -0.4710 C   0  0
   -3.5610    0.0720    0.3110 N   0  0
   -3.7810   -0.7910    1.3380 N   0  0
   -2.2270    0.3050    0.1890 C   0  0
   -2.6390   -1.1800    1.9690 C   0  0
   -1.7070   -0.4650    1.2230 C   0  0
   -1.4140    1.1330   -0.7270 C   0  0
   -0.1910   -0.4380    1.4400 C   0  0
   -0.0760    0.9490   -0.6680 C   0  0
    0.5650   -0.1990    0.0960 C   0  0  1  0  0  0
    0.9470    1.8460   -1.2810 C   0  0
    2.0700    0.2480    0.1800 C   0  0
    0.3950   -1.4710   -0.7500 C   0  0
    2.0610    1.7400   -0.2420 C   0  0
    2.5760    0.1560    1.5180 O   0  0
    2.8810   -0.4590   -0.7790 O   0  0
    3.1620   -1.0920    1.8480 C   0  0  1  0  0  0
    4.2560   -0.5720   -0.4470 C   0  0  1  0  0  0
    4.3670   -1.3240    0.9020 C   0  0
    3.5570   -1.0610    3.3260 C   0  0
    4.9690   -1.2950   -1.5940 C   0  0
   -5.2270    1.2870   -3.7460 H   0  0
   -7.6290    2.0290   -0.2460 H   0  0
   -3.4550    0.3110   -2.3340 H   0  0
   -5.8710    1.0550    1.1820 H   0  0
   -2.5370   -1.8550    2.8110 H   0  0
   -1.8670    1.8540   -1.3890 H   0  0
    0.0220    0.3690    2.1430 H   0  0
    0.1370   -1.3630    1.9140 H   0  0
    1.2540    1.4650   -2.2460 H   0  0
    0.5880    2.8590   -1.3950 H   0  0
    0.7480   -1.3300   -1.7710 H   0  0
   -0.6540   -1.7660   -0.7990 H   0  0
    0.9530   -2.3010   -0.3160 H   0  0
    3.0100    2.0920   -0.6270 H   0  0
    1.8150    2.3770    0.5980 H   0  0
    2.4080   -1.8650    1.6900 H   0  0
    4.6580    0.4380   -0.3500 H   0  0
    5.2950   -1.0200    1.3870 H   0  0
    4.4610   -2.3970    0.7310 H   0  0
    2.6930   -0.9040    3.9730 H   0  0
    4.2660   -0.2540    3.5180 H   0  0
    4.0270   -1.9980    3.6190 H   0  0
    4.8500   -0.7460   -2.5270 H   0  0
    6.0310   -1.4040   -1.3790 H   0  0
    4.5530   -2.2910   -1.7380 H   0  0
  1  2  1  0
  2  3  2  0
  2  4  1  0
  3  5  1  0
  4  6  2  0
  5  7  2  0
  7  8  1  0
  8  9  1  0
  8 10  1  0
  9 11  2  0
 10 12  2  0
 10 13  1  0
 12 14  1  0
 13 15  2  0
 14 16  1  0
 15 17  1  0
 16 18  1  0
 16 19  1  0
 17 20  1  0
 18 21  1  0
 18 22  1  0
 21 23  1  0
 22 24  1  0
 23 25  1  0
 23 26  1  0
 24 27  1  0
  6  7  1  0
 11 12  1  0
 15 16  1  0
 18 20  1  0
 24 25  1  0
  3 28  1  0
  4 29  1  0
  5 30  1  0
  6 31  1  0
 11 32  1  0
 13 33  1  0
 14 34  1  0
 14 35  1  0
 17 36  1  0
 17 37  1  0
 19 38  1  0
 19 39  1  0
 19 40  1  0
 20 41  1  0
 20 42  1  0
 23 43  1  0
 24 44  1  0
 25 45  1  0
 25 46  1  0
 26 47  1  0
 26 48  1  0
 26 49  1  0
 27 50  1  0
 27 51  1  0
 27 52  1  0
M  END
> <Name>
CHEMBL365546

> <IC50 nM>
8.4

> <Molecule_ChEMBL_ID>
CHEMBL365546

> <Smiles>
C[C@@H]1C[C@@H](C)OC2(CCC3=Cc4c(cnn4-c4ccc(F)cc4)C[C@@]32C)O1

$$$$
CHEMBL4203918
  SciTegic08162514323D

 68 71  0  0  1  0            999 V2000
    6.8580    6.4200   -1.3570 F   0  0
    6.3710    5.1860   -1.2620 C   0  0
    5.2310    4.8200   -1.9980 C   0  0
    6.9940    4.2460   -0.4240 C   0  0
    4.7150    3.5180   -1.8980 C   0  0
    6.4810    2.9410   -0.3220 C   0  0
    5.3380    2.5740   -1.0610 C   0  0
    4.8420    1.3130   -0.9630 N   0  0
    5.5920    0.1580   -0.9390 N   0  0
    3.5330    0.9590   -0.8710 C   0  0
    4.8620   -1.0080   -0.8340 C   0  0
    3.6100   -0.4200   -0.7990 C   0  0
    2.3110    1.6700   -0.8460 C   0  0
    2.4120   -1.1760   -0.6910 C   0  0
    1.1130    0.9200   -0.7380 C   0  0
    1.1620   -0.4980   -0.6600 C   0  0
    0.0260   -1.2010   -0.5590 O   0  0
   -1.1780   -0.4900   -0.3070 C   0  0  2  0  0  0
   -1.0720    0.2110    0.9980 C   0  0
   -2.3570   -1.4610   -0.3320 C   0  0  2  0  0  0
   -0.3180   -0.3480    2.0490 C   0  0
   -1.7260    1.4390    1.1990 C   0  0
   -2.1190   -2.4710    0.6230 O   0  0
   -2.5120   -2.0700   -1.6620 N   0  0
   -0.2090    0.2810    3.2560 N   0  0
   -1.6070    2.0760    2.4450 C   0  0
   -3.2830   -2.8710    1.3110 C   0  0
   -3.1440   -1.3710   -2.6500 C   0  0
   -0.8400    1.4750    3.4650 C   0  0
   -2.7500   -4.0220    2.1660 C   0  0
   -4.3120   -3.3320    0.2790 C   0  0
   -3.7730   -1.6890    2.1480 C   0  0
   -3.5740   -0.2620   -2.4340 O   0  0
   -3.2930   -2.0100   -4.0040 C   0  0
   -0.7260    2.0700    4.6350 O   0  0
   -2.0620   -2.2850   -4.5430 F   0  0
   -4.0210   -3.1660   -3.9120 F   0  0
   -4.0290   -1.0140   -4.9000 C   0  0
    0.0410    1.4260    5.6390 C   0  0
    4.7480    5.5410   -2.6450 H   0  0
    7.8710    4.5220    0.1450 H   0  0
    3.8380    3.2560   -2.4750 H   0  0
    6.9750    2.2320    0.3280 H   0  0
    5.2130   -2.0310   -0.7970 H   0  0
    2.2870    2.7480   -0.9040 H   0  0
    2.4380   -2.2540   -0.6310 H   0  0
    0.1620    1.4300   -0.7170 H   0  0
   -1.2890    0.2730   -1.0760 H   0  0
   -3.2830   -0.9510   -0.0630 H   0  0
    0.1880   -1.2910    1.9000 H   0  0
   -2.3120    1.8890    0.4100 H   0  0
   -2.1560   -2.9860   -1.8420 H   0  0
   -2.1010    3.0200    2.6210 H   0  0
   -1.9570   -3.6930    2.8380 H   0  0
   -2.3460   -4.8150    1.5370 H   0  0
   -3.5470   -4.4510    2.7730 H   0  0
   -4.7210   -2.4940   -0.2890 H   0  0
   -5.1460   -3.8380    0.7680 H   0  0
   -3.8650   -4.0290   -0.4280 H   0  0
   -4.3960   -1.0100    1.5660 H   0  0
   -2.9300   -1.1190    2.5390 H   0  0
   -4.3610   -2.0370    2.9980 H   0  0
   -4.1780   -1.4040   -5.9080 H   0  0
   -3.4690   -0.0820   -4.9840 H   0  0
   -5.0100   -0.7750   -4.4880 H   0  0
    0.0920    2.0840    6.5060 H   0  0
   -0.3830    0.4360    5.8110 H   0  0
    1.0550    1.2930    5.2620 H   0  0
  1  2  1  0
  2  3  2  0
  2  4  1  0
  3  5  1  0
  4  6  2  0
  5  7  2  0
  7  8  1  0
  8  9  1  0
  8 10  1  0
  9 11  2  0
 10 12  1  0
 10 13  2  0
 12 14  2  0
 13 15  1  0
 14 16  1  0
 16 17  1  0
 18 17  1  0
 18 19  1  0
 18 20  1  0
 19 21  2  0
 19 22  1  0
 20 23  1  0
 20 24  1  0
 21 25  1  0
 22 26  2  0
 23 27  1  0
 24 28  1  0
 25 29  2  0
 27 30  1  0
 27 31  1  0
 27 32  1  0
 28 33  2  0
 28 34  1  0
 29 35  1  0
 34 36  1  0
 34 37  1  0
 34 38  1  0
 35 39  1  0
  6  7  1  0
 11 12  1  0
 15 16  2  0
 26 29  1  0
  3 40  1  0
  4 41  1  0
  5 42  1  0
  6 43  1  0
 11 44  1  0
 13 45  1  0
 14 46  1  0
 15 47  1  0
 18 48  1  0
 20 49  1  0
 21 50  1  0
 22 51  1  0
 24 52  1  0
 26 53  1  0
 30 54  1  0
 30 55  1  0
 30 56  1  0
 31 57  1  0
 31 58  1  0
 31 59  1  0
 32 60  1  0
 32 61  1  0
 32 62  1  0
 38 63  1  0
 38 64  1  0
 38 65  1  0
 39 66  1  0
 39 67  1  0
 39 68  1  0
M  END
> <Name>
CHEMBL4203918

> <IC50 nM>
130

> <Molecule_ChEMBL_ID>
CHEMBL4203918

> <Smiles>
COc1ccc([C@@H](Oc2ccc3c(cnn3-c3ccc(F)cc3)c2)[C@@H](NC(=O)C(C)(F)F)OC(C)(C)C)cn1

$$$$
CHEMBL4203771
  SciTegic08162514323D

 46 47  0  0  1  0            999 V2000
    3.9040    0.9180   -2.9060 F   0  0
    3.8930    1.3260   -1.5980 C   0  0
    3.4770    2.6310   -1.5290 F   0  0
    2.9940    0.4430   -0.7770 C   0  0
    5.3030    1.2110   -1.0160 C   0  0
    2.5100   -0.5600   -1.2480 O   0  0
    2.7310    0.7950    0.5180 N   0  0
    1.8540   -0.0590    1.3320 C   0  0  2  0  0  0
    0.3870    0.3380    1.1560 C   0  0  2  0  0  0
    2.2950   -0.0550    2.7970 C   0  0
   -0.4000   -0.3090    2.1470 O   0  0
   -0.1190   -0.0210   -0.1930 C   0  0
   -1.7070   -0.1560    2.0940 C   0  0
   -0.4340   -1.3590   -0.5020 C   0  0
   -0.2890    0.9710   -1.1760 C   0  0
   -2.5550   -1.1460    2.6250 C   0  0
   -2.2600    0.9940    1.5040 C   0  0
   -0.9000   -1.7110   -1.7360 N   0  0
   -0.7700    0.5940   -2.4410 C   0  0
   -3.9510   -0.9860    2.5700 C   0  0
   -3.6560    1.1600    1.4470 C   0  0
   -1.0700   -0.7580   -2.6990 C   0  0
   -4.4960    0.1680    1.9810 C   0  0
   -1.5200   -1.1110   -3.8870 O   0  0
   -5.9220    0.3320    1.9220 C   0  0
   -1.9610   -2.4490   -4.0610 C   0  0
   -7.0740    0.4670    1.8750 N   0  0
    6.0260    1.7990   -1.5820 H   0  0
    5.6390    0.1740   -1.0250 H   0  0
    5.3240    1.5590    0.0160 H   0  0
    3.1330    1.6250    0.9040 H   0  0
    2.0490   -1.0270    0.8730 H   0  0
    0.2620    1.4140    1.2740 H   0  0
    3.3500   -0.3100    2.9040 H   0  0
    1.7170   -0.7770    3.3750 H   0  0
    2.1430    0.9280    3.2420 H   0  0
   -0.3050   -2.1250    0.2480 H   0  0
   -0.0550    2.0040   -0.9630 H   0  0
   -2.1370   -2.0330    3.0800 H   0  0
   -1.6150    1.7580    1.0940 H   0  0
   -0.9060    1.3400   -3.2090 H   0  0
   -4.5900   -1.7560    2.9850 H   0  0
   -4.0660    2.0510    0.9900 H   0  0
   -1.1000   -3.1090   -3.9550 H   0  0
   -2.7910   -2.6270   -3.3750 H   0  0
   -2.3400   -2.5550   -5.0760 H   0  0
  1  2  1  0
  2  3  1  0
  2  4  1  0
  2  5  1  0
  4  6  2  0
  4  7  1  0
  7  8  1  0
  8  9  1  0
  8 10  1  0
  9 11  1  0
  9 12  1  0
 11 13  1  0
 12 14  2  0
 12 15  1  0
 13 16  2  0
 13 17  1  0
 14 18  1  0
 15 19  2  0
 16 20  1  0
 17 21  2  0
 18 22  2  0
 20 23  2  0
 22 24  1  0
 23 25  1  0
 24 26  1  0
 25 27  3  0
 19 22  1  0
 21 23  1  0
  5 28  1  0
  5 29  1  0
  5 30  1  0
  7 31  1  0
  8 32  1  0
  9 33  1  0
 10 34  1  0
 10 35  1  0
 10 36  1  0
 14 37  1  0
 15 38  1  0
 16 39  1  0
 17 40  1  0
 19 41  1  0
 20 42  1  0
 21 43  1  0
 26 44  1  0
 26 45  1  0
 26 46  1  0
M  END
> <Name>
CHEMBL4203771

> <IC50 nM>
70

> <Molecule_ChEMBL_ID>
CHEMBL4203771

> <Smiles>
COc1ccc([C@@H](Oc2ccc(C#N)cc2)[C@H](C)NC(=O)C(C)(F)F)cn1

$$$$
CHEMBL3093443
  SciTegic08162514323D

 49 51  0  0  1  0            999 V2000
    0.4380   -0.2640   -0.7280 S   0  0
   -0.6950    0.2620    0.0140 O   0  0
    1.0040    0.6910   -1.6640 O   0  0
    1.6800   -0.5760    0.4510 N   0  0
   -0.0900   -1.6490   -1.6190 C   0  0
    2.1290    0.5330    1.2760 C   0  0  2  0  0  0
   -0.4800   -1.5120   -2.9650 C   0  0
   -0.1310   -2.9100   -0.9980 C   0  0
    3.5040    0.2300    1.8770 C   0  0
    1.0820    0.8670    2.3380 C   0  0
   -0.9100   -2.6390   -3.6870 C   0  0
   -0.4390   -0.1820   -3.6270 C   0  0
   -0.5610   -4.0350   -1.7230 C   0  0
    0.2810   -3.0630    0.4240 C   0  0
    4.4180    0.0700    0.8670 F   0  0
    3.4360   -0.9220    2.6170 F   0  0
    3.8890    1.2690    2.6840 F   0  0
    0.6520    2.3180    2.2480 C   0  0
   -0.9490   -3.9010   -3.0680 C   0  0
   -0.6070    2.8090    2.2110 C   0  0
    1.4980    3.4410    2.1820 C   0  0
   -1.4040   -5.0920   -3.8340 C   0  0
   -0.6330    4.1780    2.1270 C   0  0
   -1.8070    2.0530    2.2520 C   0  0
    0.6860    4.6020    2.1080 N   0  0
   -1.8520    4.8950    2.0760 C   0  0
   -3.0450    2.7460    2.2030 C   0  0
   -3.0660    4.1640    2.1170 C   0  0
    2.5020   -0.9830   -0.0170 H   0  0
    2.1990    1.3320    0.5390 H   0  0
    1.4690    0.6640    3.3380 H   0  0
    0.2090    0.2230    2.2360 H   0  0
   -1.2090   -2.5350   -4.7210 H   0  0
   -0.8550    0.6290   -3.0290 H   0  0
   -0.9960   -0.2250   -4.5620 H   0  0
    0.5920    0.0760   -3.8630 H   0  0
   -0.5920   -5.0060   -1.2480 H   0  0
   -0.0490   -3.9920    0.8890 H   0  0
   -0.1230   -2.2360    1.0100 H   0  0
    1.3670   -3.0220    0.4940 H   0  0
    2.5800    3.4610    2.1860 H   0  0
   -1.3530   -5.9750   -3.1970 H   0  0
   -2.4040   -4.9100   -4.2250 H   0  0
   -0.7380   -5.2540   -4.6820 H   0  0
   -1.7890    0.9750    2.3170 H   0  0
    1.0080    5.5410    2.0510 H   0  0
   -1.8610    5.9750    2.0100 H   0  0
   -3.9710    2.1930    2.2350 H   0  0
   -4.0120    4.6860    2.0800 H   0  0
  1  2  2  0
  1  3  2  0
  1  4  1  0
  1  5  1  0
  6  4  1  0
  5  7  2  0
  5  8  1  0
  6  9  1  0
  6 10  1  0
  7 11  1  0
  7 12  1  0
  8 13  2  0
  8 14  1  0
  9 15  1  0
  9 16  1  0
  9 17  1  0
 10 18  1  0
 11 19  2  0
 18 20  1  0
 18 21  2  0
 19 22  1  0
 20 23  1  0
 20 24  2  0
 21 25  1  0
 23 26  2  0
 24 27  1  0
 26 28  1  0
 13 19  1  0
 23 25  1  0
 27 28  2  0
  4 29  1  0
  6 30  1  0
 10 31  1  0
 10 32  1  0
 11 33  1  0
 12 34  1  0
 12 35  1  0
 12 36  1  0
 13 37  1  0
 14 38  1  0
 14 39  1  0
 14 40  1  0
 21 41  1  0
 22 42  1  0
 22 43  1  0
 22 44  1  0
 24 45  1  0
 25 46  1  0
 26 47  1  0
 27 48  1  0
 28 49  1  0
M  END
> <Name>
CHEMBL3093443

> <IC50 nM>
2000

> <Molecule_ChEMBL_ID>
CHEMBL3093443

> <Smiles>
Cc1cc(C)c(S(=O)(=O)NC(Cc2c[nH]c3ccccc23)C(F)(F)F)c(C)c1

$$$$
CHEMBL3421888
  SciTegic08162514323D

 55 58  0  0  1  0            999 V2000
   -3.5350   -4.0020    2.5250 O   0  0
   -2.7950   -3.2420    1.7050 C   0  0
   -3.3340   -2.0590    1.1600 C   0  0
   -1.4750   -3.6250    1.3890 C   0  0
   -2.5610   -1.2500    0.2850 C   0  0
   -0.6910   -2.8280    0.5230 C   0  0
   -1.2190   -1.6330   -0.0450 C   0  0
   -3.1700   -0.0040   -0.2770 C   0  0  3  0  0  0
   -0.4410   -0.7440   -0.9750 C   0  0  1  0  0  0
   -3.9710   -0.3500   -1.3950 O   0  0
   -2.1640    1.1090   -0.6950 C   0  0
   -0.6910    0.7150   -0.4840 C   0  0  2  0  0  0
    1.1020   -1.0080   -1.0940 C   0  0
   -1.0220   -0.9470   -2.3870 C   0  0
    0.3120    1.7090   -1.0820 C   0  0
    1.9630   -0.0980   -0.1950 C   0  0  2  0  0  0
   -0.9120   -2.3950   -2.8670 C   0  0
    1.7770    1.4140   -0.6230 C   0  0  1  0  0  0
    3.3160   -0.5080   -0.3200 O   0  0
    1.6330   -0.3710    1.2810 C   0  0
    2.5940    1.7190   -1.7420 O   0  0
    2.1990    2.3480    0.4650 C   0  0
    1.2440    2.8650    1.3590 C   0  0
    3.5530    2.7110    0.5980 C   0  0
    1.6430    3.7440    2.3810 C   0  0
    3.9490    3.5880    1.6190 C   0  0
    2.9940    4.1050    2.5120 C   0  0
   -4.4380   -3.7310    2.7360 H   0  0
   -4.3440   -1.7720    1.4120 H   0  0
   -1.0590   -4.5310    1.8050 H   0  0
    0.3110   -3.1680    0.3220 H   0  0
   -3.8590    0.4200    0.4550 H   0  0
   -4.5960   -1.0310   -1.1000 H   0  0
   -2.3710    2.0160   -0.1230 H   0  0
   -2.3030    1.4020   -1.7400 H   0  0
   -0.5350    0.7680    0.5960 H   0  0
    1.3710   -2.0550   -0.9860 H   0  0
    1.4060   -0.7910   -2.1210 H   0  0
   -2.0550   -0.6040   -2.4340 H   0  0
   -0.5490   -0.2700   -3.0980 H   0  0
    0.0190    2.7320   -0.8360 H   0  0
    0.2090    1.6430   -2.1660 H   0  0
   -1.3380   -2.5040   -3.8650 H   0  0
    0.1290   -2.7170   -2.8890 H   0  0
   -1.4530   -3.0650   -2.1990 H   0  0
    3.3570   -1.4430   -0.0660 H   0  0
    1.9980   -1.3460    1.6050 H   0  0
    0.5550   -0.3500    1.4470 H   0  0
    2.0840    0.3850    1.9260 H   0  0
    3.4730    1.3480   -1.5660 H   0  0
    0.2030    2.5920    1.2640 H   0  0
    4.2910    2.3160   -0.0860 H   0  0
    0.9080    4.1430    3.0660 H   0  0
    4.9880    3.8670    1.7210 H   0  0
    3.2990    4.7810    3.2990 H   0  0
  1  2  1  0
  2  3  2  0
  2  4  1  0
  3  5  1  0
  4  6  2  0
  5  7  2  0
  5  8  1  0
  7  9  1  0
  8 10  1  0
  8 11  1  0
  9 12  1  0
  9 13  1  0
  9 14  1  0
 12 15  1  0
 13 16  1  0
 14 17  1  0
 15 18  1  0
 16 19  1  0
 16 20  1  0
 18 21  1  0
 18 22  1  0
 22 23  2  0
 22 24  1  0
 23 25  1  0
 24 26  2  0
 25 27  2  0
  6  7  1  0
 11 12  1  0
 16 18  1  0
 26 27  1  0
  1 28  1  0
  3 29  1  0
  4 30  1  0
  6 31  1  0
  8 32  1  0
 10 33  1  0
 11 34  1  0
 11 35  1  0
 12 36  1  0
 13 37  1  0
 13 38  1  0
 14 39  1  0
 14 40  1  0
 15 41  1  0
 15 42  1  0
 17 43  1  0
 17 44  1  0
 17 45  1  0
 19 46  1  0
 20 47  1  0
 20 48  1  0
 20 49  1  0
 21 50  1  0
 23 51  1  0
 24 52  1  0
 25 53  1  0
 26 54  1  0
 27 55  1  0
M  END
> <Name>
CHEMBL3421888

> <IC50 nM>
5000

> <Molecule_ChEMBL_ID>
CHEMBL3421888

> <Smiles>
CC[C@@]12C[C@@](C)(O)[C@](O)(c3ccccc3)C[C@H]1CC(O)c1cc(O)ccc12

$$$$
CHEMBL3421891
  SciTegic08162514323D

 65 69  0  0  1  0            999 V2000
   -1.8810    3.4280   -1.5080 O   0  0
   -1.0700    2.5590   -1.2680 C   0  0
   -1.3850    1.1700   -0.8200 C   0  0
    0.3830    2.9460   -1.4360 C   0  0
   -0.3570    0.1740   -0.7300 C   0  0
   -2.7250    0.8500   -0.4790 C   0  0
    1.3650    1.9630   -0.7680 C   0  0  1  0  0  0
   -0.7090   -1.1110   -0.2250 C   0  0
    1.0430    0.4980   -1.1740 C   0  0  1  0  0  0
   -3.0550   -0.4430   -0.0140 C   0  0
    2.8240    2.3790   -1.0510 C   0  0
   -2.0450   -1.4180    0.1250 C   0  0
    2.1270   -0.4570   -0.5780 C   0  0
    1.0610    0.3610   -2.7050 C   0  0
   -4.3240   -0.7400    0.2930 O   0  0
    3.8590    1.4320   -0.4000 C   0  0  1  0  0  0
    3.6020   -0.0450   -0.8420 C   0  0  2  0  0  0
    0.8180   -1.0740   -3.1720 C   0  0
   -4.8130   -1.9260   -0.0630 C   0  0
    5.1490    1.8580   -0.8140 O   0  0
    3.8320    1.5650    1.0900 C   0  0
    3.8540   -0.1910   -2.2320 O   0  0
    4.5670   -1.0330   -0.1720 C   0  0
   -4.3320   -2.6190   -0.9280 O   0  0
   -6.0230   -2.3670    0.6910 C   0  0
    3.5820    0.4380    1.8950 C   0  0
    4.0590    2.8190    1.6890 C   0  0
   -6.5660   -1.5450    1.6950 C   0  0
   -6.6230   -3.6050    0.3980 C   0  0
    3.5590    0.5650    3.2930 C   0  0
    4.0330    2.9440    3.0880 C   0  0
   -7.7070   -1.9590    2.4040 C   0  0
   -7.7640   -4.0190    1.1090 C   0  0
    3.7830    1.8170    3.8910 C   0  0
   -8.3050   -3.1970    2.1110 C   0  0
    0.6000    3.0370   -2.5020 H   0  0
    0.5330    3.9440   -1.0160 H   0  0
   -3.5040    1.5940   -0.5680 H   0  0
    1.2230    2.0530    0.3110 H   0  0
    0.0250   -1.8910   -0.1000 H   0  0
    2.9710    3.4030   -0.6970 H   0  0
    2.9790    2.4180   -2.1330 H   0  0
   -2.2910   -2.4000    0.5000 H   0  0
    1.9790   -1.4710   -0.9550 H   0  0
    1.9840   -0.5210    0.5060 H   0  0
    0.3420    1.0410   -3.1600 H   0  0
    1.9940    0.7480   -3.1150 H   0  0
    0.6330   -1.1050   -4.2440 H   0  0
    1.6760   -1.7050   -2.9390 H   0  0
   -0.0530   -1.5000   -2.6720 H   0  0
    5.7950    1.2850   -0.3730 H   0  0
    3.7070   -1.1250   -2.4530 H   0  0
    4.0390   -1.8750    0.2790 H   0  0
    5.1410   -0.5410    0.6130 H   0  0
    5.2740   -1.4330   -0.8980 H   0  0
    3.4100   -0.5270    1.4410 H   0  0
    4.2500    3.6880    1.0780 H   0  0
   -6.1130   -0.5920    1.9280 H   0  0
   -6.2150   -4.2440   -0.3690 H   0  0
    3.3650   -0.3010    3.9100 H   0  0
    4.2050    3.9060    3.5470 H   0  0
   -8.1230   -1.3280    3.1760 H   0  0
   -8.2250   -4.9710    0.8850 H   0  0
    3.7640    1.9140    4.9670 H   0  0
   -9.1820   -3.5160    2.6580 H   0  0
  1  2  2  0
  2  3  1  0
  2  4  1  0
  3  5  2  0
  3  6  1  0
  7  4  1  0
  5  8  1  0
  5  9  1  0
  6 10  2  0
  7 11  1  0
  8 12  2  0
  9 13  1  0
  9 14  1  0
 10 15  1  0
 11 16  1  0
 13 17  1  0
 14 18  1  0
 15 19  1  0
 16 20  1  0
 16 21  1  0
 17 22  1  0
 17 23  1  0
 19 24  2  0
 19 25  1  0
 21 26  2  0
 21 27  1  0
 25 28  2  0
 25 29  1  0
 26 30  1  0
 27 31  2  0
 28 32  1  0
 29 33  2  0
 30 34  2  0
 32 35  2  0
  7  9  1  0
 10 12  1  0
 16 17  1  0
 31 34  1  0
 33 35  1  0
  4 36  1  0
  4 37  1  0
  6 38  1  0
  7 39  1  0
  8 40  1  0
 11 41  1  0
 11 42  1  0
 12 43  1  0
 13 44  1  0
 13 45  1  0
 14 46  1  0
 14 47  1  0
 18 48  1  0
 18 49  1  0
 18 50  1  0
 20 51  1  0
 22 52  1  0
 23 53  1  0
 23 54  1  0
 23 55  1  0
 26 56  1  0
 27 57  1  0
 28 58  1  0
 29 59  1  0
 30 60  1  0
 31 61  1  0
 32 62  1  0
 33 63  1  0
 34 64  1  0
 35 65  1  0
M  END
> <Name>
CHEMBL3421891

> <IC50 nM>
28

> <Molecule_ChEMBL_ID>
CHEMBL3421891

> <Smiles>
CC[C@@]12C[C@@](C)(O)[C@](O)(c3ccccc3)C[C@H]1CC(=O)c1cc(OC(=O)c3ccccc3)ccc12

$$$$
CHEMBL302580
  SciTegic08162514323D

 58 60  0  0  0  0            999 V2000
   -3.4770   -1.6660   -2.6990 S   0  0
   -4.8420   -1.2090   -2.8910 O   0  0
   -2.5610   -1.1800   -3.7170 O   0  0
   -2.9670   -1.0960   -1.2720 N   0  0
   -3.4610   -3.4550   -2.7170 C   0  0
   -1.6230   -1.0020   -1.0100 C   0  0
   -1.1330   -0.1760    0.0290 C   0  0
   -0.7250   -1.7480   -1.7970 C   0  0
    0.2620   -0.1040    0.2680 C   0  0
   -2.0800    0.6210    0.8690 C   0  0
    0.6560   -1.6740   -1.5570 C   0  0
    0.7750    0.6860    1.2640 N   0  0
    1.1480   -0.8560   -0.5270 C   0  0
   -2.6290    1.6640    0.0980 O   0  0
    0.9590    0.1640    2.6250 C   0  0
    1.1500    2.0780    0.9790 C   0  0
   -3.5290    2.4750    0.8200 C   0  0
    1.7480   -1.0960    2.6250 C   0  0
    2.0060    2.1780   -0.2320 C   0  0
   -4.1990    3.4380   -0.1600 C   0  0
    1.0920   -2.3400    2.6250 C   0  0
    3.1540   -1.0470    2.6250 C   0  0
    3.3890    1.9360   -0.1390 C   0  0
    1.4340    2.5140   -1.4730 C   0  0
    1.8380   -3.5290    2.6250 C   0  0
    3.9000   -2.2360    2.6250 C   0  0
    4.1970    2.0290   -1.2850 C   0  0
    2.2440    2.6070   -2.6170 C   0  0
    3.2420   -3.4790    2.6250 C   0  0
    3.6250    2.3650   -2.5230 C   0  0
   -3.6310   -0.8130   -0.5800 H   0  0
   -3.6090   -3.8950   -3.7030 H   0  0
   -4.2460   -3.8320   -2.0610 H   0  0
   -2.5060   -3.8150   -2.3340 H   0  0
   -1.0800   -2.3850   -2.5940 H   0  0
   -2.8970   -0.0220    1.2010 H   0  0
   -1.5410    1.0640    1.7050 H   0  0
    1.3400   -2.2480   -2.1620 H   0  0
    2.2150   -0.8140   -0.3610 H   0  0
   -0.0180   -0.0200    3.0740 H   0  0
    1.4710    0.9120    3.2310 H   0  0
    1.6840    2.4880    1.8360 H   0  0
    0.2460    2.6700    0.8340 H   0  0
   -4.2700    1.8240    1.2890 H   0  0
   -2.9650    3.0230    1.5720 H   0  0
   -4.9000    4.0900    0.3590 H   0  0
   -3.4550    4.0490   -0.6700 H   0  0
   -4.7560    2.8890   -0.9200 H   0  0
    0.0120   -2.3850    2.6250 H   0  0
    3.6660   -0.0940    2.6250 H   0  0
    3.8340    1.6780    0.8110 H   0  0
    0.3730    2.7010   -1.5510 H   0  0
    1.3320   -4.4840    2.6250 H   0  0
    4.9810   -2.1970    2.6250 H   0  0
    5.2580    1.8440   -1.2130 H   0  0
    1.8050    2.8650   -3.5700 H   0  0
    3.8160   -4.3950    2.6250 H   0  0
    4.2480    2.4380   -3.4040 H   0  0
  1  2  2  0
  1  3  2  0
  1  4  1  0
  1  5  1  0
  4  6  1  0
  6  7  2  0
  6  8  1  0
  7  9  1  0
  7 10  1  0
  8 11  2  0
  9 12  1  0
  9 13  2  0
 10 14  1  0
 12 15  1  0
 12 16  1  0
 14 17  1  0
 15 18  1  0
 16 19  1  0
 17 20  1  0
 18 21  2  0
 18 22  1  0
 19 23  2  0
 19 24  1  0
 21 25  1  0
 22 26  2  0
 23 27  1  0
 24 28  2  0
 25 29  2  0
 27 30  2  0
 11 13  1  0
 26 29  1  0
 28 30  1  0
  4 31  1  0
  5 32  1  0
  5 33  1  0
  5 34  1  0
  8 35  1  0
 10 36  1  0
 10 37  1  0
 11 38  1  0
 13 39  1  0
 15 40  1  0
 15 41  1  0
 16 42  1  0
 16 43  1  0
 17 44  1  0
 17 45  1  0
 20 46  1  0
 20 47  1  0
 20 48  1  0
 21 49  1  0
 22 50  1  0
 23 51  1  0
 24 52  1  0
 25 53  1  0
 26 54  1  0
 27 55  1  0
 28 56  1  0
 29 57  1  0
 30 58  1  0
M  END
> <Name>
CHEMBL302580

> <IC50 nM>
290

> <Molecule_ChEMBL_ID>
CHEMBL302580

> <Smiles>
CCOCc1c(NS(C)(=O)=O)cccc1N(Cc1ccccc1)Cc1ccccc1

$$$$
CHEMBL308900
  SciTegic08162514323D

 61 63  0  0  0  0            999 V2000
    1.2640   -1.3300    4.2520 S   0  0
    0.2230   -0.5840    4.9350 O   0  0
    0.8610   -2.6800    3.8960 O   0  0
    1.6020   -0.5450    2.8750 N   0  0
    2.7030   -1.4160    5.3100 C   0  0
    0.6350   -0.4020    1.9120 C   0  0
    0.9160    0.2300    0.6780 C   0  0
   -0.6540   -0.9000    2.1680 C   0  0
   -0.1070    0.3590   -0.2950 C   0  0
    2.2890    0.7600    0.4060 C   0  0
   -1.6660   -0.7710    1.2030 C   0  0
    0.1580    0.9750   -1.4960 N   0  0
   -1.4000   -0.1450   -0.0260 C   0  0
    0.0180    0.2480   -2.7660 C   0  0
    0.5900    2.3810   -1.5240 C   0  0
   -2.5140   -0.0310   -1.0240 C   0  0
    0.8070   -1.0120   -2.7660 C   0  0
    0.1110    3.1230   -0.3300 C   0  0
   -2.7640    1.0230   -1.5570 O   0  0
   -3.2440   -1.1470   -1.3220 N   0  0
    0.1480   -2.2540   -2.7660 C   0  0
    2.2130   -0.9610   -2.7660 C   0  0
    1.0290    3.7830    0.5060 C   0  0
   -1.2640    3.1660   -0.0310 C   0  0
   -4.4280   -1.0230   -2.1840 C   0  0
   -2.8750   -2.4710   -0.8030 C   0  0
    0.8960   -3.4450   -2.7660 C   0  0
    2.9590   -2.1520   -2.7660 C   0  0
    0.5760    4.4860    1.6350 C   0  0
   -1.7170    3.8690    1.0970 C   0  0
    2.3010   -3.3950   -2.7660 C   0  0
   -0.7970    4.5290    1.9310 C   0  0
    2.5140   -0.1640    2.7280 H   0  0
    2.5350   -1.9360    6.2540 H   0  0
    3.0450   -0.4060    5.5410 H   0  0
    3.5100   -1.9300    4.7870 H   0  0
   -0.8870   -1.3890    3.1030 H   0  0
    3.0920    0.1720    0.8470 H   0  0
    2.3690    1.7770    0.7930 H   0  0
    2.4550    0.7990   -0.6700 H   0  0
   -2.6520   -1.1600    1.4160 H   0  0
    0.3520    0.8870   -3.5840 H   0  0
   -1.0350    0.0180   -2.9320 H   0  0
    0.2050    2.8560   -2.4260 H   0  0
    1.6800    2.4200   -1.5650 H   0  0
   -0.9300   -2.3010   -2.7660 H   0  0
    2.7250   -0.0100   -2.7660 H   0  0
    2.0860    3.7540    0.2830 H   0  0
   -1.9750    2.6620   -0.6680 H   0  0
   -4.6660   -0.0040   -2.4920 H   0  0
   -5.2970   -1.4220   -1.6600 H   0  0
   -4.2790   -1.6190   -3.0840 H   0  0
   -1.7990   -2.5060   -0.6410 H   0  0
   -3.4570   -2.6780    0.0960 H   0  0
   -3.1270   -3.2290   -1.5450 H   0  0
    0.3910   -4.4000   -2.7660 H   0  0
    4.0390   -2.1130   -2.7660 H   0  0
    1.2830    4.9920    2.2750 H   0  0
   -2.7720    3.9020    1.3240 H   0  0
    2.8750   -4.3110   -2.7660 H   0  0
   -1.1470    5.0680    2.7990 H   0  0
  1  2  2  0
  1  3  2  0
  1  4  1  0
  1  5  1  0
  4  6  1  0
  6  7  2  0
  6  8  1  0
  7  9  1  0
  7 10  1  0
  8 11  2  0
  9 12  1  0
  9 13  2  0
 12 14  1  0
 12 15  1  0
 13 16  1  0
 14 17  1  0
 15 18  1  0
 16 19  2  0
 16 20  1  0
 17 21  2  0
 17 22  1  0
 18 23  2  0
 18 24  1  0
 20 25  1  0
 20 26  1  0
 21 27  1  0
 22 28  2  0
 23 29  1  0
 24 30  2  0
 27 31  2  0
 29 32  2  0
 11 13  1  0
 28 31  1  0
 30 32  1  0
  4 33  1  0
  5 34  1  0
  5 35  1  0
  5 36  1  0
  8 37  1  0
 10 38  1  0
 10 39  1  0
 10 40  1  0
 11 41  1  0
 14 42  1  0
 14 43  1  0
 15 44  1  0
 15 45  1  0
 21 46  1  0
 22 47  1  0
 23 48  1  0
 24 49  1  0
 25 50  1  0
 25 51  1  0
 25 52  1  0
 26 53  1  0
 26 54  1  0
 26 55  1  0
 27 56  1  0
 28 57  1  0
 29 58  1  0
 30 59  1  0
 31 60  1  0
 32 61  1  0
M  END
> <Name>
CHEMBL308900

> <IC50 nM>
2700

> <Molecule_ChEMBL_ID>
CHEMBL308900

> <Smiles>
Cc1c(NS(C)(=O)=O)ccc(C(=O)N(C)C)c1N(Cc1ccccc1)Cc1ccccc1

$$$$
CHEMBL203240
  SciTegic08162514323D

 48 50  0  0  0  0            999 V2000
   -0.7090   -2.1660   -1.3630 S   0  0
   -1.5720   -1.6560    0.1500 C   0  0
   -0.4920   -3.9280   -0.9750 C   0  0
   -1.8790   -0.1800    0.0800 C   0  0
    0.2250   -4.6050   -2.1110 C   0  0
   -0.7930    0.8440    0.1310 C   0  0
   -3.1640    0.2150   -0.0310 C   0  0
    0.7710   -5.8130   -1.8950 C   0  0
   -1.1250    2.2270    0.0590 C   0  0
    0.5630    0.4430    0.2480 C   0  0
   -3.5650    1.6780   -0.1070 C   0  0
   -2.4180    2.6290   -0.0550 N   0  0
   -0.0840    3.1920    0.1090 C   0  0
    1.5960    1.4120    0.2990 C   0  0
   -4.3180    1.8950   -1.4220 C   0  0
   -4.4980    1.9770    1.0680 C   0  0
    1.2640    2.7870    0.2290 C   0  0
    2.9880    0.9980    0.4200 C   0  0
    3.4670    0.4200    1.6130 C   0  0
    3.8670    1.1740   -0.6660 C   0  0
    2.6150    0.2340    2.7050 N   0  3
    4.8090    0.0240    1.7250 C   0  0
    5.2110    0.7750   -0.5550 C   0  0
    1.7130    1.0270    2.8400 O   0  0
    2.8520   -0.7230    3.4410 O   0  5
    5.6820    0.2010    0.6390 C   0  0
   -2.4980   -2.2230    0.2500 H   0  0
   -0.9410   -1.8610    1.0160 H   0  0
   -1.4690   -4.3890   -0.8240 H   0  0
    0.0880   -4.0290   -0.0590 H   0  0
    0.3480   -4.2150   -3.1110 H   0  0
   -3.9400   -0.5370   -0.0660 H   0  0
    1.3090   -6.4220   -2.6070 H   0  0
    0.6520   -6.2010   -0.8930 H   0  0
    0.8140   -0.6050    0.3010 H   0  0
   -2.6330    3.6080   -0.1070 H   0  0
   -0.3070    4.2480    0.0590 H   0  0
   -3.6880    1.6930   -2.2890 H   0  0
   -4.6700    2.9240   -1.5000 H   0  0
   -5.1880    1.2400   -1.4820 H   0  0
   -3.9860    1.8170    2.0180 H   0  0
   -4.8560    3.0060    1.0250 H   0  0
   -5.3690    1.3200    1.0450 H   0  0
    2.0350    3.5410    0.2640 H   0  0
    3.5230    1.6130   -1.5920 H   0  0
    5.1700   -0.4200    2.6430 H   0  0
    5.8850    0.9120   -1.3890 H   0  0
    6.7150   -0.1030    0.7230 H   0  0
  1  2  1  0
  1  3  1  0
  2  4  1  0
  3  5  1  0
  4  6  1  0
  4  7  2  0
  5  8  2  0
  6  9  2  0
  6 10  1  0
  7 11  1  0
  9 12  1  0
  9 13  1  0
 10 14  2  0
 11 15  1  0
 11 16  1  0
 13 17  2  0
 14 18  1  0
 18 19  2  0
 18 20  1  0
 19 21  1  0
 19 22  1  0
 20 23  2  0
 21 24  2  0
 21 25  1  0
 22 26  2  0
 11 12  1  0
 14 17  1  0
 23 26  1  0
  2 27  1  0
  2 28  1  0
  3 29  1  0
  3 30  1  0
  5 31  1  0
  7 32  1  0
  8 33  1  0
  8 34  1  0
 10 35  1  0
 12 36  1  0
 13 37  1  0
 15 38  1  0
 15 39  1  0
 15 40  1  0
 16 41  1  0
 16 42  1  0
 16 43  1  0
 17 44  1  0
 20 45  1  0
 22 46  1  0
 23 47  1  0
 26 48  1  0
M  CHG  2  21   1  25  -1
M  END
> <Name>
CHEMBL203240

> <IC50 nM>
2000

> <Molecule_ChEMBL_ID>
CHEMBL203240

> <Smiles>
C=CCSCC1=CC(C)(C)Nc2ccc(-c3ccccc3[N+](=O)[O-])cc21

$$$$
CHEMBL237385
  SciTegic08162514323D

 48 49  0  0  1  0            999 V2000
    0.1580   -1.2560    1.9940 F   0  0
   -1.1620   -1.4160    1.9510 C   0  0
   -2.0160   -0.3010    1.8260 C   0  0
   -1.7070   -2.7090    2.0310 C   0  0
   -3.4100   -0.4880    1.7810 C   0  0
   -1.4550    1.0740    1.7420 C   0  0
   -3.1000   -2.8930    1.9860 C   0  0
   -3.9490   -1.7830    1.8610 C   0  0
   -1.3240    1.5410    0.2910 C   0  0  2  0  0  0
   -0.8360    2.8630    0.2950 O   0  0
   -2.6600    1.5250   -0.4550 C   0  0
   -0.3610    0.6760   -0.5230 C   0  0
   -2.5240    2.1860   -1.6490 F   0  0
   -3.6150    2.1480    0.3050 F   0  0
   -3.0370    0.2290   -0.6910 F   0  0
    0.9550    1.3910   -0.8300 C   0  0
    1.5800    0.2010   -1.4670 C   0  0
    0.7850    2.5370   -1.8280 C   0  0
    1.7070    1.8140    0.4320 C   0  0
    2.2660   -0.7480   -0.6820 C   0  0
    1.4840    0.0250   -2.8590 C   0  0
    2.3610   -0.5940    0.6250 O   0  0
    2.8520   -1.8670   -1.2970 C   0  0
    2.0720   -1.0960   -3.4710 C   0  0
    3.1970   -1.4900    1.3420 C   0  0
    2.7560   -2.0430   -2.6880 C   0  0
    1.9820   -1.2600   -4.7870 F   0  0
   -1.0550   -3.5660    2.1270 H   0  0
   -4.0700    0.3610    1.6860 H   0  0
   -2.0820    1.7580    2.3110 H   0  0
   -0.4880    1.1040    2.2440 H   0  0
   -3.5160   -3.8890    2.0470 H   0  0
   -5.0220   -1.9240    1.8260 H   0  0
   -1.4730    3.4000    0.7910 H   0  0
   -0.1760   -0.2710   -0.0200 H   0  0
   -0.8340    0.3300   -1.4410 H   0  0
    1.6110    2.5860   -2.5350 H   0  0
    0.7340    3.4940   -1.3090 H   0  0
   -0.1370    2.4180   -2.3990 H   0  0
    2.7830    1.6780    0.3300 H   0  0
    1.3770    1.2300    1.2910 H   0  0
    1.5230    2.8650    0.6560 H   0  0
    0.9610    0.7540   -3.4610 H   0  0
    3.3770   -2.5980   -0.6990 H   0  0
    3.3090   -1.1130    2.3570 H   0  0
    2.7870   -2.4940    1.2400 H   0  0
    4.1820   -1.4840    0.8750 H   0  0
    3.2090   -2.9060   -3.1520 H   0  0
  1  2  1  0
  2  3  2  0
  2  4  1  0
  3  5  1  0
  3  6  1  0
  4  7  2  0
  5  8  2  0
  6  9  1  0
  9 10  1  0
  9 11  1  0
  9 12  1  0
 11 13  1  0
 11 14  1  0
 11 15  1  0
 12 16  1  0
 16 17  1  0
 16 18  1  0
 16 19  1  0
 17 20  2  0
 17 21  1  0
 20 22  1  0
 20 23  1  0
 21 24  2  0
 22 25  1  0
 23 26  2  0
 24 27  1  0
  7  8  1  0
 24 26  1  0
  4 28  1  0
  5 29  1  0
  6 30  1  0
  6 31  1  0
  7 32  1  0
  8 33  1  0
 10 34  1  0
 12 35  1  0
 12 36  1  0
 18 37  1  0
 18 38  1  0
 18 39  1  0
 19 40  1  0
 19 41  1  0
 19 42  1  0
 21 43  1  0
 23 44  1  0
 25 45  1  0
 25 46  1  0
 25 47  1  0
 26 48  1  0
M  END
> <Name>
CHEMBL237385

> <IC50 nM>
370

> <Molecule_ChEMBL_ID>
CHEMBL237385

> <Smiles>
COc1ccc(F)cc1C(C)(C)CC(O)(Cc1ccccc1F)C(F)(F)F

$$$$
CHEMBL3358923
  SciTegic08162514323D

 53 55  0  0  1  0            999 V2000
   -0.0800   -3.3790    1.3160 F   0  0
   -0.8710   -2.7890    0.4220 C   0  0
   -1.5680   -1.6170    0.7640 C   0  0
   -1.0120   -3.3400   -0.8630 C   0  0
   -2.4060   -0.9940   -0.1780 C   0  0
   -1.8460   -2.7190   -1.8070 C   0  0
   -2.5450   -1.5450   -1.4690 C   0  0
   -3.1350    0.2480    0.1990 C   0  0
   -3.4260   -0.9000   -2.4790 C   0  0
   -2.3610    1.1350   -0.7750 C   0  0
   -2.8870    0.6210    1.6620 C   0  0
   -4.6230    0.1500   -0.1410 C   0  0
   -0.8480    0.9570   -0.6620 C   0  0  1  0  0  0
   -0.5180   -0.3280   -1.1390 O   0  0
   -0.0700    1.9860   -1.4840 C   0  0
   -0.3460    1.0780    0.7770 C   0  0
   -0.6620    2.1330   -2.7130 F   0  0
    1.2230    1.5570   -1.6480 F   0  0
   -0.0720    3.1890   -0.8300 F   0  0
    1.1640    0.9710    0.8420 C   0  0
    2.0210    2.1000    0.9180 N   0  0
    1.9570   -0.1930    0.8400 C   0  0
    3.3140    1.6090    0.9630 C   0  0
    3.2320    0.2400    0.9120 C   0  0
    4.5880    2.2050    1.0430 C   0  0
    4.4080   -0.5650    0.9390 C   0  0
    5.7640    1.4880    1.0740 N   0  0
    5.6700    0.1000    1.0230 C   0  0
    6.9060   -0.6970    1.0550 C   0  0
   -1.4590   -1.1950    1.7540 H   0  0
   -0.4790   -4.2400   -1.1310 H   0  0
   -1.9490   -3.1470   -2.7930 H   0  0
   -4.0630   -0.1110   -2.0800 H   0  0
   -4.0700   -1.6540   -2.9320 H   0  0
   -2.8130   -0.4690   -3.2700 H   0  0
   -2.6950    0.9630   -1.7990 H   0  0
   -2.6390    2.1820   -0.6470 H   0  0
   -2.0720    1.3380    1.7660 H   0  0
   -2.6330   -0.2600    2.2480 H   0  0
   -3.7790    1.0680    2.1020 H   0  0
   -4.8790   -0.8160   -0.5700 H   0  0
   -4.9020    0.9200   -0.8610 H   0  0
   -5.2330    0.2930    0.7520 H   0  0
    0.1780   -0.6780   -0.5590 H   0  0
   -0.6620    2.0250    1.2170 H   0  0
   -0.7930    0.3100    1.4060 H   0  0
    1.7460    3.0550    0.9360 H   0  0
    1.6090   -1.2190    0.7890 H   0  0
    4.6480    3.2830    1.0820 H   0  0
    4.3500   -1.6430    0.9000 H   0  0
    7.7660   -0.0310    1.1350 H   0  0
    6.8520   -1.4180    1.8710 H   0  0
    7.0020   -1.2540    0.1230 H   0  0
  1  2  1  0
  2  3  2  0
  2  4  1  0
  3  5  1  0
  4  6  2  0
  5  7  2  0
  5  8  1  0
  7  9  1  0
  8 10  1  0
  8 11  1  0
  8 12  1  0
 10 13  1  0
 13 14  1  0
 13 15  1  0
 13 16  1  0
 15 17  1  0
 15 18  1  0
 15 19  1  0
 16 20  1  0
 20 21  1  0
 20 22  2  0
 21 23  1  0
 22 24  1  0
 23 25  1  0
 24 26  1  0
 25 27  2  0
 26 28  2  0
 28 29  1  0
  6  7  1  0
 23 24  2  0
 27 28  1  0
  3 30  1  0
  4 31  1  0
  6 32  1  0
  9 33  1  0
  9 34  1  0
  9 35  1  0
 10 36  1  0
 10 37  1  0
 11 38  1  0
 11 39  1  0
 11 40  1  0
 12 41  1  0
 12 42  1  0
 12 43  1  0
 14 44  1  0
 16 45  1  0
 16 46  1  0
 21 47  1  0
 22 48  1  0
 25 49  1  0
 26 50  1  0
 29 51  1  0
 29 52  1  0
 29 53  1  0
M  END
> <Name>
CHEMBL3358923

> <IC50 nM>
170

> <Molecule_ChEMBL_ID>
CHEMBL3358923

> <Smiles>
Cc1cc2cc(CC(O)(CC(C)(C)c3cc(F)ccc3C)C(F)(F)F)[nH]c2cn1

$$$$
CHEMBL190838
  SciTegic08162514323D

 53 56  0  0  1  0            999 V2000
    0.2010    3.4060   -1.3070 F   0  0
    1.2500    2.5270   -1.3650 C   0  0
    1.2440    1.8890   -2.5800 F   0  0
    2.4300    3.2110   -1.2150 F   0  0
    1.1130    1.4940   -0.2460 C   0  0  3  0  0  0
    0.9880    2.1840    0.9770 O   0  0
   -0.1620    0.7480   -0.5350 C   0  0
    2.3240    0.5640   -0.1500 C   0  0
   -0.1390   -0.3540   -1.0310 O   0  0
   -1.3530    1.3420   -0.2260 N   0  0
    2.5350    0.0160    1.2660 C   0  0  3  0  0  0
   -2.5040    0.6990   -0.4730 C   0  0
    3.8360   -0.7110    1.3400 C   0  0
    1.3360   -0.8460    1.7010 C   0  0
   -3.6170    1.4060   -1.0000 C   0  0
   -2.6210   -0.6900   -0.2050 C   0  0
    3.8990   -2.1370    1.4140 C   0  0
    5.0410    0.0390    1.3240 C   0  0
    1.3910   -2.2290    1.0470 C   0  0
   -4.8340    0.7230   -1.2580 C   0  0
   -3.8340   -1.3730   -0.4630 C   0  0
    5.1620   -2.7790    1.4490 C   0  0
    2.6680   -2.9710    1.4670 C   0  0
    6.2950   -0.6130    1.3650 C   0  0
   -4.9360   -0.6580   -0.9900 C   0  0
   -6.0270    1.4280   -1.8110 C   0  0
    6.3540   -2.0220    1.4220 C   0  0
   -6.2380   -1.3180   -1.2810 C   0  0
   -7.1190    0.7770   -2.0330 N   0  0
   -5.9880    2.9020   -2.1210 C   0  0
   -6.4180   -2.4980   -1.0860 O   0  0
   -7.3030   -0.6510   -1.7830 O   0  0
    1.7930    2.7130    1.0920 H   0  0
    3.2250    1.0660   -0.5060 H   0  0
    2.2440   -0.2480   -0.8710 H   0  0
   -1.3690    2.2540    0.1840 H   0  0
    2.5800    0.8690    1.9430 H   0  0
    0.3980   -0.3460    1.4490 H   0  0
    1.3360   -0.9610    2.7850 H   0  0
   -3.5410    2.4630   -1.2090 H   0  0
   -1.7850   -1.2460    0.1970 H   0  0
    5.0080    1.1170    1.2790 H   0  0
    1.3590   -2.1270   -0.0390 H   0  0
    0.5140   -2.8150    1.3260 H   0  0
   -3.9080   -2.4320   -0.2580 H   0  0
    5.2190   -3.8580    1.4980 H   0  0
    2.5510   -3.3260    2.4920 H   0  0
    2.7890   -3.8600    0.8440 H   0  0
    7.2050   -0.0330    1.3540 H   0  0
    7.3110   -2.5220    1.4470 H   0  0
   -6.9400    3.2150   -2.5550 H   0  0
   -5.7560    3.4650   -1.2170 H   0  0
   -5.2070    3.1070   -2.8520 H   0  0
  1  2  1  0
  2  3  1  0
  2  4  1  0
  2  5  1  0
  5  6  1  0
  5  7  1  0
  5  8  1  0
  7  9  2  0
  7 10  1  0
  8 11  1  0
 10 12  1  0
 11 13  1  0
 11 14  1  0
 12 15  2  0
 12 16  1  0
 13 17  2  0
 13 18  1  0
 14 19  1  0
 15 20  1  0
 16 21  2  0
 17 22  1  0
 17 23  1  0
 18 24  2  0
 20 25  2  0
 20 26  1  0
 22 27  2  0
 25 28  1  0
 26 29  2  0
 26 30  1  0
 28 31  2  0
 28 32  1  0
 19 23  1  0
 21 25  1  0
 24 27  1  0
 29 32  1  0
  6 33  1  0
  8 34  1  0
  8 35  1  0
 10 36  1  0
 11 37  1  0
 14 38  1  0
 14 39  1  0
 15 40  1  0
 16 41  1  0
 18 42  1  0
 19 43  1  0
 19 44  1  0
 21 45  1  0
 22 46  1  0
 23 47  1  0
 23 48  1  0
 24 49  1  0
 27 50  1  0
 30 51  1  0
 30 52  1  0
 30 53  1  0
M  END
> <Name>
CHEMBL190838

> <IC50 nM>
7.94

> <Molecule_ChEMBL_ID>
CHEMBL190838

> <Smiles>
Cc1noc(=O)c2ccc(NC(=O)C(O)(CC3CCCc4ccccc43)C(F)(F)F)cc12

$$$$
CHEMBL219015
  SciTegic08162514323D

 54 55  0  0  1  0            999 V2000
    4.8480    4.1580   -1.2500 F   0  0
    3.5290    3.9840   -1.2930 C   0  0
    2.9860    2.6900   -1.2130 C   0  0
    2.6780    5.0960   -1.4180 C   0  0
    1.5940    2.5060   -1.2580 C   0  0
    1.2850    4.9120   -1.4630 C   0  0
    0.7380    3.6190   -1.3830 C   0  0
    1.0290    1.1310   -1.1740 C   0  0
   -0.5700    3.4570   -1.4260 O   0  0
    0.6350    1.2620    0.2990 C   0  0
    2.1040    0.0680   -1.4020 C   0  0
   -0.1780    0.9590   -2.0960 C   0  0
   -1.3810    4.4040   -0.7440 C   0  0
    0.1150   -0.0490    0.8890 C   0  0  1  0  0  0
    1.2190   -0.7930    1.3520 O   0  0
   -0.7480    0.3280    2.0940 C   0  0
   -0.6390   -0.8980   -0.1350 C   0  0
   -0.0760    1.2340    2.8710 F   0  0
   -1.0170   -0.7970    2.8320 F   0  0
   -1.9240    0.8810    1.6580 F   0  0
   -1.0080   -2.2050    0.4340 N   0  0
   -0.1110   -3.2560    0.3650 C   0  0
   -2.2460   -2.3610    1.0290 C   0  0
   -0.4060   -4.4750    0.8730 C   0  0
   -2.6330   -3.5410    1.5670 C   0  0
   -1.7150   -4.6970    1.5200 C   0  0
    0.5980   -5.5960    0.7790 C   0  0
   -3.9900   -3.6720    2.2070 C   0  0
   -2.0190   -5.7720    1.9860 O   0  0
    3.6430    1.8360   -1.1170 H   0  0
    3.0900    6.0920   -1.4780 H   0  0
    0.6350    5.7680   -1.5590 H   0  0
   -0.0940    2.0610    0.4320 H   0  0
    1.4670    1.6470    0.8890 H   0  0
    1.6920   -0.9390   -1.3650 H   0  0
    2.8850    0.1390   -0.6440 H   0  0
    2.5740    0.1990   -2.3790 H   0  0
   -0.1640    1.6720   -2.9200 H   0  0
   -1.1070    1.1060   -1.5450 H   0  0
   -0.1970   -0.0430   -2.5210 H   0  0
   -0.8180    4.7830    0.1080 H   0  0
   -1.7210    5.1470   -1.4670 H   0  0
   -2.2600    3.8870   -0.3610 H   0  0
    1.7460   -1.0370    0.5740 H   0  0
   -0.0310   -1.0550   -1.0270 H   0  0
   -1.5390   -0.3870   -0.4730 H   0  0
    0.8540   -3.1230   -0.1030 H   0  0
   -2.9410   -1.5330    1.0800 H   0  0
    0.2460   -6.5310    1.2110 H   0  0
    1.5160   -5.3140    1.2950 H   0  0
    0.8480   -5.7830   -0.2660 H   0  0
   -4.5800   -2.7560    2.1700 H   0  0
   -3.8810   -3.9550    3.2540 H   0  0
   -4.5610   -4.4570    1.7090 H   0  0
  1  2  1  0
  2  3  2  0
  2  4  1  0
  3  5  1  0
  4  6  2  0
  5  7  2  0
  5  8  1  0
  7  9  1  0
  8 10  1  0
  8 11  1  0
  8 12  1  0
  9 13  1  0
 10 14  1  0
 14 15  1  0
 14 16  1  0
 14 17  1  0
 16 18  1  0
 16 19  1  0
 16 20  1  0
 17 21  1  0
 21 22  1  0
 21 23  1  0
 22 24  2  0
 23 25  2  0
 24 26  1  0
 24 27  1  0
 25 28  1  0
 26 29  2  0
  6  7  1  0
 25 26  1  0
  3 30  1  0
  4 31  1  0
  6 32  1  0
 10 33  1  0
 10 34  1  0
 11 35  1  0
 11 36  1  0
 11 37  1  0
 12 38  1  0
 12 39  1  0
 12 40  1  0
 13 41  1  0
 13 42  1  0
 13 43  1  0
 15 44  1  0
 17 45  1  0
 17 46  1  0
 22 47  1  0
 23 48  1  0
 27 49  1  0
 27 50  1  0
 27 51  1  0
 28 52  1  0
 28 53  1  0
 28 54  1  0
M  END
> <Name>
CHEMBL219015

> <IC50 nM>
120

> <Molecule_ChEMBL_ID>
CHEMBL219015

> <Smiles>
COc1ccc(F)cc1C(C)(C)CC(O)(Cn1cc(C)c(=O)c(C)c1)C(F)(F)F

$$$$
CHEMBL195990
  SciTegic08162514323D

 63 69  0  0  1  0            999 V2000
   -8.7780   -3.7730    1.2150 F   0  0
   -7.8070   -2.9120    0.9200 C   0  0
   -6.5860   -2.9630    1.6150 C   0  0
   -8.0000   -1.9530   -0.0900 C   0  0
   -5.5590   -2.0550    1.3030 C   0  0
   -6.9750   -1.0430   -0.4020 C   0  0
   -5.7520   -1.0920    0.2930 C   0  0
   -4.7600   -0.2150   -0.0080 N   0  0
   -4.9440    1.1170   -0.2250 N   0  0
   -3.4440   -0.5200   -0.1410 C   0  0
   -3.7910    1.7790   -0.5180 C   0  0
   -2.8930    0.7170   -0.4610 C   0  0
   -2.6680   -1.7730   -0.0180 C   0  0
   -1.3890    0.7810   -0.7300 C   0  0
   -1.3240   -1.6460   -0.0210 C   0  0
   -0.6270   -0.3010    0.0900 C   0  0  1  0  0  0
   -0.3460   -2.7680   -0.1760 C   0  0
    0.8180   -0.6580   -0.3850 C   0  0
   -0.6600    0.1150    1.5700 C   0  0
    0.7640   -2.0860   -0.9750 C   0  0
    1.7790   -0.6270    0.6660 O   0  0
    1.3440    0.2540   -1.3380 O   0  0
    2.9590    0.0080    0.2290 C   0  0  1  0  0  0
    2.3830    1.0140   -0.7660 C   0  0  1  0  0  0
    3.6820    0.6150    1.3790 C   0  0
    3.3400    1.4670   -1.8120 C   0  0
    3.0410    1.5680    2.1920 C   0  0
    5.0100    0.2400    1.6540 C   0  0
    3.9450    0.5270   -2.6660 C   0  0
    3.6370    2.8340   -1.9510 C   0  0
    3.7250    2.1430    3.2770 C   0  0
    5.6930    0.8140    2.7400 C   0  0
    4.8500    0.9550   -3.6540 C   0  0
    4.5410    3.2620   -2.9390 C   0  0
    5.0510    1.7660    3.5510 C   0  0
    5.1460    2.3220   -3.7910 C   0  0
   -6.4340   -3.6990    2.3910 H   0  0
   -8.9360   -1.9100   -0.6270 H   0  0
   -4.6270   -2.1090    1.8500 H   0  0
   -7.1430   -0.3120   -1.1820 H   0  0
   -3.6580    2.8300   -0.7300 H   0  0
   -3.1550   -2.7340    0.0510 H   0  0
   -1.2440    0.6130   -1.7970 H   0  0
   -1.0040    1.7770   -0.5120 H   0  0
   -0.7720   -3.6090   -0.7050 H   0  0
    0.0020   -3.0980    0.7910 H   0  0
   -1.6840    0.3010    1.8950 H   0  0
   -0.2230   -0.6620    2.1970 H   0  0
   -0.0900    1.0290    1.7250 H   0  0
    0.4780   -2.0550   -2.0200 H   0  0
    1.7030   -2.6190   -0.9200 H   0  0
    3.5780   -0.7380   -0.2540 H   0  0
    1.9350    1.8670   -0.2710 H   0  0
    2.0210    1.8610    1.9860 H   0  0
    5.5100   -0.4900    1.0350 H   0  0
    3.7230   -0.5230   -2.5660 H   0  0
    3.1760    3.5630   -1.2990 H   0  0
    3.2300    2.8730    3.9010 H   0  0
    6.7110    0.5250    2.9510 H   0  0
    5.3140    0.2340   -4.3090 H   0  0
    4.7690    4.3130   -3.0450 H   0  0
    5.5760    2.2070    4.3850 H   0  0
    5.8400    2.6500   -4.5510 H   0  0
  1  2  1  0
  2  3  2  0
  2  4  1  0
  3  5  1  0
  4  6  2  0
  5  7  2  0
  7  8  1  0
  8  9  1  0
  8 10  1  0
  9 11  2  0
 10 12  2  0
 10 13  1  0
 12 14  1  0
 13 15  2  0
 14 16  1  0
 15 17  1  0
 16 18  1  0
 16 19  1  0
 17 20  1  0
 18 21  1  0
 18 22  1  0
 21 23  1  0
 22 24  1  0
 23 25  1  0
 24 26  1  0
 25 27  2  0
 25 28  1  0
 26 29  2  0
 26 30  1  0
 27 31  1  0
 28 32  2  0
 29 33  1  0
 30 34  2  0
 31 35  2  0
 33 36  2  0
  6  7  1  0
 11 12  1  0
 15 16  1  0
 18 20  1  0
 23 24  1  0
 32 35  1  0
 34 36  1  0
  3 37  1  0
  4 38  1  0
  5 39  1  0
  6 40  1  0
 11 41  1  0
 13 42  1  0
 14 43  1  0
 14 44  1  0
 17 45  1  0
 17 46  1  0
 19 47  1  0
 19 48  1  0
 19 49  1  0
 20 50  1  0
 20 51  1  0
 23 52  1  0
 24 53  1  0
 27 54  1  0
 28 55  1  0
 29 56  1  0
 30 57  1  0
 31 58  1  0
 32 59  1  0
 33 60  1  0
 34 61  1  0
 35 62  1  0
 36 63  1  0
M  END
> <Name>
CHEMBL195990

> <IC50 nM>
10

> <Molecule_ChEMBL_ID>
CHEMBL195990

> <Smiles>
C[C@]12Cc3cnn(-c4ccc(F)cc4)c3C=C1CCC21O[C@H](c2ccccc2)[C@@H](c2ccccc2)O1

$$$$
CHEMBL365821
  SciTegic08162514323D

 53 58  0  0  1  0            999 V2000
   -7.5120   -4.1660   -1.9670 F   0  0
   -6.6190   -3.2440   -1.6150 C   0  0
   -5.5490   -3.5860   -0.7710 C   0  0
   -6.7480   -1.9260   -2.0880 C   0  0
   -4.6080   -2.6110   -0.3980 C   0  0
   -5.8070   -0.9490   -1.7170 C   0  0
   -4.7340   -1.2910   -0.8710 C   0  0
   -3.8240   -0.3500   -0.5120 N   0  0
   -4.1330    0.9200   -0.1250 N   0  0
   -2.4770   -0.5200   -0.4790 C   0  0
   -3.0390    1.6700    0.1780 C   0  0
   -2.0370    0.7340   -0.0680 C   0  0
   -1.5860   -1.6600   -0.7790 C   0  0
   -0.5290    0.9610    0.0550 C   0  0
   -0.2890   -1.5180   -0.4320 C   0  0
    0.2070   -0.3610    0.4200 C   0  0  1  0  0  0
    0.8280   -2.4220   -0.8480 C   0  0
    1.7460   -0.4100    0.1480 C   0  0  1  0  0  0
   -0.1190   -0.7030    1.8810 C   0  0
    1.9820   -1.4340   -0.9920 C   0  0
    2.3120    0.8480   -0.1640 O   0  0
    2.5270   -0.7600    1.2770 O   0  0
    3.7050    0.8160    0.0630 C   0  0  2  0  0  0
    3.8500   -0.2810    1.1250 C   0  0
    4.1880    2.1580    0.4900 C   0  0
    3.6930    2.7380    1.6740 C   0  0
    5.1350    2.8460   -0.2870 C   0  0
    4.1500    4.0060    2.0760 C   0  0
    5.5900    4.1130    0.1170 C   0  0
    5.0980    4.6930    1.2990 C   0  0
   -5.4470   -4.5980   -0.4060 H   0  0
   -7.5700   -1.6580   -2.7360 H   0  0
   -3.7910   -2.8950    0.2520 H   0  0
   -5.9240    0.0590   -2.0900 H   0  0
   -3.0080    2.7010    0.5080 H   0  0
   -1.9550   -2.5530   -1.2660 H   0  0
   -0.3200    1.7400    0.7870 H   0  0
   -0.1820    1.3340   -0.9100 H   0  0
    0.6110   -2.9340   -1.7750 H   0  0
    1.0210   -3.1520   -0.0760 H   0  0
   -1.1970   -0.7290    2.0390 H   0  0
    0.3050   -1.6700    2.1540 H   0  0
    0.2990    0.0450    2.5550 H   0  0
    1.9080   -0.9470   -1.9550 H   0  0
    2.9450   -1.9240   -0.9590 H   0  0
    4.1890    0.5210   -0.8570 H   0  0
    4.2190    0.0510    2.0860 H   0  0
    4.4750   -1.0860    0.7680 H   0  0
    2.9670    2.2150    2.2750 H   0  0
    5.5180    2.4060   -1.1950 H   0  0
    3.7720    4.4510    2.9840 H   0  0
    6.3180    4.6430   -0.4800 H   0  0
    5.4470    5.6680    1.6090 H   0  0
  1  2  1  0
  2  3  2  0
  2  4  1  0
  3  5  1  0
  4  6  2  0
  5  7  2  0
  7  8  1  0
  8  9  1  0
  8 10  1  0
  9 11  2  0
 10 12  2  0
 10 13  1  0
 12 14  1  0
 13 15  2  0
 14 16  1  0
 15 17  1  0
 16 18  1  0
 16 19  1  0
 17 20  1  0
 18 21  1  0
 18 22  1  0
 21 23  1  0
 22 24  1  0
 23 25  1  0
 25 26  2  0
 25 27  1  0
 26 28  1  0
 27 29  2  0
 28 30  2  0
  6  7  1  0
 11 12  1  0
 15 16  1  0
 18 20  1  0
 23 24  1  0
 29 30  1  0
  3 31  1  0
  4 32  1  0
  5 33  1  0
  6 34  1  0
 11 35  1  0
 13 36  1  0
 14 37  1  0
 14 38  1  0
 17 39  1  0
 17 40  1  0
 19 41  1  0
 19 42  1  0
 19 43  1  0
 20 44  1  0
 20 45  1  0
 23 46  1  0
 24 47  1  0
 24 48  1  0
 26 49  1  0
 27 50  1  0
 28 51  1  0
 29 52  1  0
 30 53  1  0
M  END
> <Name>
CHEMBL365821

> <IC50 nM>
12

> <Molecule_ChEMBL_ID>
CHEMBL365821

> <Smiles>
C[C@]12Cc3cnn(-c4ccc(F)cc4)c3C=C1CC[C@]21OC[C@H](c2ccccc2)O1

$$$$
CHEMBL193704
  SciTegic08162514323D

 47 51  0  0  1  0            999 V2000
   -6.9550   -1.1680    3.6060 F   0  0
   -5.8610   -1.3320    2.8650 C   0  0
   -5.1950   -2.5680    2.8580 C   0  0
   -5.3710   -0.2660    2.0920 C   0  0
   -4.0390   -2.7420    2.0760 C   0  0
   -4.2170   -0.4360    1.3090 C   0  0
   -3.5470   -1.6760    1.2990 C   0  0
   -2.4320   -1.8400    0.5430 N   0  0
   -2.1820   -2.9020   -0.2710 N   0  0
   -1.4000   -0.9670    0.4790 C   0  0
   -0.9820   -2.8240   -0.9100 C   0  0
   -0.5310   -1.6070   -0.3980 C   0  0
   -1.1480    0.3420    1.1130 C   0  0
    0.8140   -0.9490   -0.6990 C   0  0
   -0.0740    1.0270    0.6720 C   0  0
    0.7150    0.5960   -0.5470 C   0  0  1  0  0  0
    0.4750    2.2730    1.3010 C   0  0
    2.0250    1.3950   -0.3320 C   0  0  2  0  0  0
   -0.0200    1.1520   -1.7770 C   0  0
    1.5900    2.7070    0.3480 C   0  0
    2.7440    1.6170   -1.5370 O   0  0
    2.9430    0.7130    0.5060 O   0  0
    4.0610    1.1020   -1.4410 C   0  0  1  0  0  0
    3.9450    0.1150   -0.2770 C   0  0
    4.4820    0.4710   -2.7520 C   0  0
    5.6680    0.8160   -3.2790 C   0  0
   -5.5680   -3.3910    3.4510 H   0  0
   -5.8810    0.6870    2.0960 H   0  0
   -3.5410   -3.7010    2.0820 H   0  0
   -3.8560    0.3960    0.7210 H   0  0
   -0.5660   -3.5450   -1.6000 H   0  0
   -1.7910    0.7280    1.8990 H   0  0
    1.5180   -1.3730    0.0240 H   0  0
    1.1760   -1.2320   -1.6950 H   0  0
    0.8750    2.0370    2.2760 H   0  0
   -0.2750    3.0430    1.4140 H   0  0
   -1.0180    0.7210   -1.8570 H   0  0
   -0.1040    2.2360   -1.7170 H   0  0
    0.5230    0.9100   -2.6910 H   0  0
    2.4000    3.2070    0.8610 H   0  0
    1.1990    3.4080   -0.3810 H   0  0
    4.7090    1.9390   -1.1890 H   0  0
    4.8460   -0.0080    0.3090 H   0  0
    3.5920   -0.8500   -0.6170 H   0  0
    3.9160   -0.2500   -3.3240 H   0  0
    6.1020    0.4550   -4.1990 H   0  0
    6.2380    1.5330   -2.7050 H   0  0
  1  2  1  0
  2  3  2  0
  2  4  1  0
  3  5  1  0
  4  6  2  0
  5  7  2  0
  7  8  1  0
  8  9  1  0
  8 10  1  0
  9 11  2  0
 10 12  2  0
 10 13  1  0
 12 14  1  0
 13 15  2  0
 14 16  1  0
 15 17  1  0
 16 18  1  0
 16 19  1  0
 17 20  1  0
 18 21  1  0
 18 22  1  0
 21 23  1  0
 22 24  1  0
 23 25  1  0
 25 26  2  0
  6  7  1  0
 11 12  1  0
 15 16  1  0
 18 20  1  0
 23 24  1  0
  3 27  1  0
  4 28  1  0
  5 29  1  0
  6 30  1  0
 11 31  1  0
 13 32  1  0
 14 33  1  0
 14 34  1  0
 17 35  1  0
 17 36  1  0
 19 37  1  0
 19 38  1  0
 19 39  1  0
 20 40  1  0
 20 41  1  0
 23 42  1  0
 24 43  1  0
 24 44  1  0
 25 45  1  0
 26 46  1  0
 26 47  1  0
M  END
> <Name>
CHEMBL193704

> <IC50 nM>
38

> <Molecule_ChEMBL_ID>
CHEMBL193704

> <Smiles>
C=C[C@@H]1CO[C@@]2(CCC3=Cc4c(cnn4-c4ccc(F)cc4)C[C@@]32C)O1

$$$$
CHEMBL3895181
  SciTegic08162514323D

 72 76  0  0  1  0            999 V2000
   -5.2790    2.5610    0.6890 O   0  0
   -4.6680    1.6390    0.2050 C   0  0
   -5.3340    0.5980   -0.3770 N   0  0
   -3.2030    1.4360    0.1310 C   0  0
   -6.7050    0.5940   -0.4120 C   0  0
   -2.6190    0.9430   -1.0570 C   0  0
   -2.3940    1.7320    1.2460 C   0  0
   -7.4490   -0.5840   -0.1600 C   0  0
   -7.3930    1.7890   -0.7050 C   0  0
   -1.2170    0.7400   -1.1370 C   0  0
   -0.9980    1.5370    1.1760 C   0  0
   -8.8150   -0.5780   -0.1970 N   0  0
   -6.7730   -1.8750    0.1540 C   0  0
   -8.7970    1.7770   -0.7400 C   0  0
   -0.3890    1.0270   -0.0040 C   0  0
   -0.6540    0.2210   -2.4140 C   0  0
   -9.4820    0.5760   -0.4800 C   0  0
    1.0980    0.8160   -0.0570 C   0  0  1  0  0  0
    0.8690    0.3610   -2.5330 C   0  0
    1.7640    0.3630    1.2790 C   0  0  1  0  0  0
    1.5330   -0.1000   -1.2340 C   0  0  1  0  0  0
    1.1930   -0.8540    1.7360 O   0  0
    3.2990    0.2150    1.1470 C   0  0
    3.0680   -0.0740   -1.3220 C   0  0  1  0  0  0
    1.5880   -1.1930    3.0450 C   0  0
    3.7110   -0.6620   -0.0530 C   0  0  1  0  0  0
    3.7130   -0.9080   -2.4300 C   0  0
    0.6780   -2.2660    3.5800 C   0  0
    5.2030   -0.6840   -0.4730 C   0  0  2  0  0  0
    3.2420   -2.1170    0.1500 C   0  0
    5.1210   -1.2380   -1.9140 C   0  0
    1.0840   -2.9770    4.6450 C   0  0
    5.9670   -1.5470    0.3520 O   0  0
    5.8420    0.6430   -0.4470 C   0  0
    6.3670    1.7110   -0.4200 C   0  0
    7.0160    3.0180   -0.3810 C   0  0
   -4.8200   -0.1640   -0.7750 H   0  0
   -3.2440    0.7210   -1.9080 H   0  0
   -2.8340    2.1090    2.1560 H   0  0
   -6.8610    2.7090   -0.9020 H   0  0
   -0.4100    1.7870    2.0470 H   0  0
   -7.4550   -2.6950    0.3810 H   0  0
   -6.1170   -1.7400    1.0140 H   0  0
   -6.1580   -2.1780   -0.6910 H   0  0
   -9.3440    2.6820   -0.9630 H   0  0
   -0.9200   -0.8340   -2.4920 H   0  0
   -1.1270    0.7170   -3.2640 H   0  0
  -10.5630    0.5660   -0.5080 H   0  0
    1.5020    1.8070   -0.2700 H   0  0
    1.2210   -0.2290   -3.3790 H   0  0
    1.1370    1.3980   -2.7420 H   0  0
    1.5840    1.0940    2.0660 H   0  0
    1.2010   -1.1230   -1.0430 H   0  0
    3.7270   -0.1800    2.0700 H   0  0
    3.7090    1.2190    1.0350 H   0  0
    3.3750    0.9550   -1.4550 H   0  0
    1.5120   -0.3010    3.6660 H   0  0
    2.6130   -1.5630    3.0060 H   0  0
    3.7380   -0.3750   -3.3670 H   0  0
    3.1540   -1.8200   -2.5920 H   0  0
   -0.2930   -2.5330    3.1880 H   0  0
    3.6040   -2.7750   -0.6390 H   0  0
    2.1520   -2.1740    0.1600 H   0  0
    3.6040   -2.5100    1.1020 H   0  0
    5.8870   -0.8380   -2.5660 H   0  0
    5.2500   -2.3150   -1.9320 H   0  0
    0.5450   -3.7740    5.1370 H   0  0
    2.0530   -2.7110    5.0390 H   0  0
    6.8420   -1.6370   -0.0590 H   0  0
    7.1530    3.3400    0.6520 H   0  0
    6.4040    3.7580   -0.8980 H   0  0
    7.9900    2.9690   -0.8630 H   0  0
  1  2  2  0
  2  3  1  0
  2  4  1  0
  3  5  1  0
  4  6  2  0
  4  7  1  0
  5  8  2  0
  5  9  1  0
  6 10  1  0
  7 11  2  0
  8 12  1  0
  8 13  1  0
  9 14  2  0
 10 15  2  0
 10 16  1  0
 12 17  2  0
 18 15  1  0
 16 19  1  0
 18 20  1  0
 18 21  1  0
 20 22  1  0
 20 23  1  0
 21 24  1  0
 22 25  1  0
 23 26  1  0
 24 27  1  0
 25 28  1  0
 26 29  1  0
 26 30  1  0
 27 31  1  0
 28 32  2  0
 29 33  1  0
 29 34  1  0
 34 35  3  0
 35 36  1  0
 11 15  1  0
 14 17  1  0
 21 19  1  0
 24 26  1  0
 29 31  1  0
  3 37  1  0
  6 38  1  0
  7 39  1  0
  9 40  1  0
 11 41  1  0
 13 42  1  0
 13 43  1  0
 13 44  1  0
 14 45  1  0
 16 46  1  0
 16 47  1  0
 17 48  1  0
 18 49  1  0
 19 50  1  0
 19 51  1  0
 20 52  1  0
 21 53  1  0
 23 54  1  0
 23 55  1  0
 24 56  1  0
 25 57  1  0
 25 58  1  0
 27 59  1  0
 27 60  1  0
 28 61  1  0
 30 62  1  0
 30 63  1  0
 30 64  1  0
 31 65  1  0
 31 66  1  0
 32 67  1  0
 32 68  1  0
 33 69  1  0
 36 70  1  0
 36 71  1  0
 36 72  1  0
M  END
> <Name>
CHEMBL3895181

> <IC50 nM>
0.03

> <Molecule_ChEMBL_ID>
CHEMBL3895181

> <Smiles>
C=CCO[C@H]1C[C@@]2(C)[C@@H](CC[C@@]2(O)C#CC)[C@@H]2CCc3cc(C(=O)Nc4cccnc4C)ccc3[C@H]21

$$$$
CHEMBL4534324
  SciTegic08162514323D

 68 72  0  0  1  0            999 V2000
    1.7660   -1.7030   -7.6250 Cl  0  0
    1.0430   -1.0640   -6.2070 C   0  0
   -0.0760   -1.6990   -5.6390 C   0  0
    1.5680    0.0960   -5.6100 C   0  0
   -0.6660   -1.1760   -4.4750 C   0  0
    0.9770    0.6190   -4.4470 C   0  0
   -0.1410   -0.0170   -3.8790 C   0  0
   -0.7640    0.5350   -2.6490 C   0  0
   -0.0660    0.0690   -1.5160 O   0  0
   -0.3090    0.8400   -0.3540 C   0  0  2  0  0  0
    0.6930    0.4850    0.7890 C   0  0  2  0  0  0
   -1.7790    0.6490    0.0740 C   0  0
    2.1970    0.7990    0.4800 C   0  0  2  0  0  0
    0.4260   -0.9280    1.3690 C   0  0  2  0  0  0
   -2.0450   -0.7320    0.7150 C   0  0  1  0  0  0
    3.1450    0.2290    1.5350 C   0  0
    2.3540    2.3440    0.4100 C   0  0
    2.6640    0.1600   -0.8360 C   0  0
   -1.0370   -0.9370    1.8570 C   0  0  1  0  0  0
    1.3500   -1.2150    2.5620 C   0  0
   -3.3850   -0.9330    1.4840 C   0  0  2  0  0  0
   -1.8630   -1.8650   -0.3160 C   0  0
    4.2680    0.8770    1.9100 C   0  0
    2.8160   -1.1130    2.1560 C   0  0
    3.8090    2.8130    0.2910 C   0  0
   -1.5450   -2.2170    2.5230 C   0  0
   -4.4340   -1.3010    0.6030 O   0  0
   -3.8150    0.2760    2.2070 C   0  0
   -3.0720   -2.0880    2.4670 C   0  0
    4.6820    2.1700    1.3420 C   0  0
   -4.1600    1.2600    2.7830 C   0  0
    5.6990    2.7070    1.7150 O   0  0
   -4.5840    2.4690    3.4800 C   0  0
   -0.4920   -2.5900   -6.0880 H   0  0
    2.4280    0.5960   -6.0350 H   0  0
   -1.5250   -1.6700   -4.0430 H   0  0
    1.3850    1.5120   -3.9940 H   0  0
   -0.6970    1.6230   -2.6640 H   0  0
   -1.7950    0.1900   -2.5760 H   0  0
   -0.1780    1.8810   -0.6500 H   0  0
    0.4360    1.1620    1.6070 H   0  0
   -2.4550    0.8110   -0.7700 H   0  0
   -2.0040    1.4450    0.7830 H   0  0
    0.5860   -1.6870    0.6070 H   0  0
    1.7850    2.7540   -0.4240 H   0  0
    1.9260    2.7870    1.3120 H   0  0
    3.7500    0.1580   -0.9240 H   0  0
    2.2620    0.7030   -1.6910 H   0  0
    2.3220   -0.8710   -0.9060 H   0  0
   -1.1470   -0.1350    2.5760 H   0  0
    1.1560   -2.2130    2.9630 H   0  0
    1.1480   -0.5100    3.3710 H   0  0
   -2.1680   -2.8320    0.0840 H   0  0
   -0.8180   -1.9450   -0.6190 H   0  0
   -2.4550   -1.6720   -1.2110 H   0  0
    4.9040    0.4360    2.6640 H   0  0
    3.0530   -1.8960    1.4370 H   0  0
    3.4450   -1.2970    3.0290 H   0  0
    4.1990    2.5720   -0.6950 H   0  0
    3.8500    3.8990    0.3940 H   0  0
   -1.2210   -3.0900    1.9750 H   0  0
   -1.1820   -2.3140    3.5370 H   0  0
   -5.1660   -1.6230    1.1520 H   0  0
   -3.4960   -3.0310    2.1460 H   0  0
   -3.4670   -1.9080    3.4610 H   0  0
   -4.9160    2.2230    4.4900 H   0  0
   -5.4080    2.9460    2.9490 H   0  0
   -3.7600    3.1780    3.5490 H   0  0
  1  2  1  0
  2  3  2  0
  2  4  1  0
  3  5  1  0
  4  6  2  0
  5  7  2  0
  7  8  1  0
  8  9  1  0
 10  9  1  0
 11 10  1  0
 10 12  1  0
 11 13  1  0
 11 14  1  0
 12 15  1  0
 13 16  1  0
 13 17  1  0
 13 18  1  0
 14 19  1  0
 14 20  1  0
 15 21  1  0
 15 22  1  0
 16 23  2  0
 16 24  1  0
 17 25  1  0
 19 26  1  0
 21 27  1  0
 21 28  1  0
 21 29  1  0
 23 30  1  0
 28 31  3  0
 30 32  2  0
 31 33  1  0
  6  7  1  0
 15 19  1  0
 20 24  1  0
 25 30  1  0
 26 29  1  0
  3 34  1  0
  4 35  1  0
  5 36  1  0
  6 37  1  0
  8 38  1  0
  8 39  1  0
 10 40  1  0
 11 41  1  0
 12 42  1  0
 12 43  1  0
 14 44  1  0
 17 45  1  0
 17 46  1  0
 18 47  1  0
 18 48  1  0
 18 49  1  0
 19 50  1  0
 20 51  1  0
 20 52  1  0
 22 53  1  0
 22 54  1  0
 22 55  1  0
 23 56  1  0
 24 57  1  0
 24 58  1  0
 25 59  1  0
 25 60  1  0
 26 61  1  0
 26 62  1  0
 27 63  1  0
 29 64  1  0
 29 65  1  0
 33 66  1  0
 33 67  1  0
 33 68  1  0
M  END
> <Name>
CHEMBL4534324

> <IC50 nM>
17.6

> <Molecule_ChEMBL_ID>
CHEMBL4534324

> <Smiles>
CC#C[C@]1(O)CC[C@H]2[C@@H]3CCC4=CC(=O)CC[C@]4(C)[C@H]3[C@@H](OCc3ccc(Cl)cc3)C[C@@]21C

$$$$
CHEMBL4591353
  SciTegic08162514323D

 87 92  0  0  1  0            999 V2000
   -6.1820   -1.6370   -2.9450 O   0  0
   -5.1720   -1.3890   -2.3280 C   0  0
   -4.5250   -2.4200   -1.5020 C   0  0
   -4.5370   -0.0230   -2.3790 C   0  0
   -3.3280   -2.2340   -0.9000 C   0  0
   -3.0120   -0.1330   -2.3090 C   0  0
   -2.5220   -0.9510   -1.0900 C   0  0  2  0  0  0
   -2.7620   -3.3110    0.0040 C   0  0
   -0.9860   -1.2010   -1.1720 C   0  0  1  0  0  0
   -1.2540   -3.5140   -0.1760 C   0  0
   -0.1370    0.1020   -1.2320 C   0  0  1  0  0  0
   -0.4940   -2.1840   -0.0800 C   0  0  1  0  0  0
   -0.4750    1.0700   -0.1480 C   0  0
    1.3810   -0.1970   -1.2850 C   0  0
    1.0100   -2.4360   -0.2790 C   0  0  1  0  0  0
   -0.0450    2.4060   -0.2420 C   0  0
   -1.2190    0.6490    0.9650 C   0  0
    1.8360   -1.1460   -0.1580 C   0  0  1  0  0  0
    1.6990   -3.3630    0.7230 C   0  0
   -0.3610    3.3200    0.7770 C   0  0
   -1.5370    1.5610    1.9860 C   0  0
    3.2810   -1.7170   -0.2110 C   0  0  2  0  0  0
    1.6110   -0.5160    1.2290 C   0  0
    3.1780   -2.9510    0.7150 C   0  0
   -1.1090    2.9010    1.8950 C   0  0
    4.2290   -0.7890    0.2890 O   0  0
    3.7070   -2.1020   -1.5660 C   0  0
   -1.4180    3.7890    2.8890 N   0  0
    4.0610   -2.4160   -2.6580 C   0  0
   -2.2230    3.3090    4.0590 C   0  0
   -0.8930    5.1880    2.7850 C   0  0
    4.5040   -2.7990   -3.9960 C   0  0
   -2.7340    4.4470    4.9610 C   0  0
   -1.4410    6.1540    3.8600 C   0  0
    3.5270   -3.8300   -4.5610 C   0  0
    4.5250   -1.5570   -4.8850 C   0  0
    5.9060   -3.4000   -3.9020 C   0  0
   -1.7290    5.5040    5.1410 N   0  0
   -2.1620    6.4880    6.1470 C   0  0
   -5.0410   -3.3610   -1.3710 H   0  0
   -4.8360    0.4920   -3.2930 H   0  0
   -4.9080    0.5720   -1.5450 H   0  0
   -2.5900    0.8710   -2.2870 H   0  0
   -2.6480   -0.5960   -3.2270 H   0  0
   -2.7250   -0.3530   -0.1990 H   0  0
   -2.9630   -3.0270    1.0370 H   0  0
   -3.2750   -4.2600   -0.1580 H   0  0
   -0.8180   -1.7090   -2.1250 H   0  0
   -0.8980   -4.2150    0.5780 H   0  0
   -1.0660   -3.9820   -1.1440 H   0  0
   -0.3790    0.6150   -2.1620 H   0  0
   -0.6740   -1.7520    0.9060 H   0  0
    1.9630    0.7270   -1.2600 H   0  0
    1.5920   -0.6460   -2.2580 H   0  0
    1.1430   -2.8610   -1.2660 H   0  0
    0.5270    2.7340   -1.0980 H   0  0
   -1.5510   -0.3770    1.0410 H   0  0
    1.2850   -3.2280    1.7110 H   0  0
    1.5700   -4.4000    0.4590 H   0  0
   -0.0230    4.3440    0.6880 H   0  0
   -2.1110    1.2190    2.8360 H   0  0
    0.5940   -0.6780    1.5880 H   0  0
    1.7850    0.5610    1.1950 H   0  0
    2.2950   -0.9430    1.9610 H   0  0
    3.4770   -2.7090    1.7270 H   0  0
    3.8180   -3.7660    0.4020 H   0  0
    4.1370    0.0240   -0.2300 H   0  0
   -3.0800    2.7340    3.6940 H   0  0
   -1.5980    2.6190    4.6310 H   0  0
    0.1990    5.1390    2.8480 H   0  0
   -1.1290    5.5860    1.7990 H   0  0
   -2.9730    4.0160    5.9400 H   0  0
   -3.6540    4.8730    4.5550 H   0  0
   -2.3400    6.6530    3.4810 H   0  0
   -0.6890    6.9340    4.0200 H   0  0
    3.4790   -4.7250   -3.9390 H   0  0
    3.8280   -4.1370   -5.5620 H   0  0
    2.5220   -3.4140   -4.6270 H   0  0
    5.2010   -0.7930   -4.5020 H   0  0
    3.5310   -1.1150   -4.9550 H   0  0
    4.8480   -1.8110   -5.8950 H   0  0
    6.6230   -2.6910   -3.4880 H   0  0
    6.2640   -3.7010   -4.8870 H   0  0
    5.9040   -4.2830   -3.2640 H   0  0
   -1.3670    7.2150    6.3110 H   0  0
   -3.0960    6.9510    5.8220 H   0  0
   -2.3520    5.9810    7.0920 H   0  0
  1  2  2  0
  2  3  1  0
  2  4  1  0
  3  5  2  0
  4  6  1  0
  5  7  1  0
  5  8  1  0
  9  7  1  0
  8 10  1  0
  9 11  1  0
  9 12  1  0
 11 13  1  0
 11 14  1  0
 12 15  1  0
 13 16  2  0
 13 17  1  0
 14 18  1  0
 15 19  1  0
 16 20  1  0
 17 21  2  0
 18 22  1  0
 18 23  1  0
 19 24  1  0
 20 25  2  0
 22 26  1  0
 22 27  1  0
 25 28  1  0
 27 29  3  0
 28 30  1  0
 28 31  1  0
 29 32  1  0
 30 33  1  0
 31 34  1  0
 32 35  1  0
 32 36  1  0
 32 37  1  0
 33 38  1  0
 38 39  1  0
  7  6  1  0
 12 10  1  0
 15 18  1  0
 21 25  1  0
 22 24  1  0
 34 38  1  0
  3 40  1  0
  4 41  1  0
  4 42  1  0
  6 43  1  0
  6 44  1  0
  7 45  1  0
  8 46  1  0
  8 47  1  0
  9 48  1  0
 10 49  1  0
 10 50  1  0
 11 51  1  0
 12 52  1  0
 14 53  1  0
 14 54  1  0
 15 55  1  0
 16 56  1  0
 17 57  1  0
 19 58  1  0
 19 59  1  0
 20 60  1  0
 21 61  1  0
 23 62  1  0
 23 63  1  0
 23 64  1  0
 24 65  1  0
 24 66  1  0
 26 67  1  0
 30 68  1  0
 30 69  1  0
 31 70  1  0
 31 71  1  0
 33 72  1  0
 33 73  1  0
 34 74  1  0
 34 75  1  0
 35 76  1  0
 35 77  1  0
 35 78  1  0
 36 79  1  0
 36 80  1  0
 36 81  1  0
 37 82  1  0
 37 83  1  0
 37 84  1  0
 39 85  1  0
 39 86  1  0
 39 87  1  0
M  END
> <Name>
CHEMBL4591353

> <IC50 nM>
35.8

> <Molecule_ChEMBL_ID>
CHEMBL4591353

> <Smiles>
CN1CCN(c2ccc([C@H]3C[C@@]4(C)[C@@H](CC[C@@]4(O)C#CC(C)(C)C)[C@@H]4CCC5=CC(=O)CC[C@@H]5[C@H]43)cc2)CC1

$$$$
CHEMBL3233272
  SciTegic08162514323D

 60 62  0  0  1  0            999 V2000
    2.4200    4.2600    0.6910 F   0  0
    1.5120    3.7380   -0.1290 C   0  0
    0.5120    2.8890    0.3750 C   0  0
    1.5510    4.0370   -1.5020 C   0  0
   -0.4490    2.3380   -0.4900 C   0  0
    0.5900    3.4860   -2.3670 C   0  0
   -0.4120    2.6370   -1.8670 C   0  0
   -1.5020    1.4410    0.0550 C   0  0
   -1.3070    2.1250   -2.6890 O   0  0
   -0.7250    0.1580   -0.2440 C   0  0
   -2.8010    1.5430   -0.7460 C   0  0
   -1.7150    1.6680    1.5530 C   0  0
   -1.5100    2.7700   -3.9380 C   0  0
   -1.3440   -1.0740    0.4160 C   0  0  1  0  0  0
   -2.7440   -0.9080    0.4360 O   0  0
   -1.0180   -2.2620   -0.4900 C   0  0
   -0.8650   -1.2770    1.8540 C   0  0
   -2.0820   -1.8440   -1.5040 C   0  0
   -1.3260   -3.6070    0.1680 C   0  0
    0.4000   -2.1970   -1.0630 C   0  0
    0.6430   -1.3910    1.9180 C   0  0
    1.5040   -0.2660    1.9940 N   0  0
    1.4320   -2.5590    1.9160 C   0  0
    2.7970   -0.7600    2.0390 C   0  0
    2.7110   -2.1290    1.9880 C   0  0
    4.0720   -0.1660    2.1190 C   0  0
    3.8830   -2.9360    2.0160 C   0  0
    5.2460   -0.8850    2.1500 N   0  0
    5.1470   -2.2730    2.1000 C   0  0
    0.4820    2.6600    1.4320 H   0  0
    2.3160    4.6900   -1.8970 H   0  0
    0.6230    3.7170   -3.4220 H   0  0
    0.3200    0.2660    0.0450 H   0  0
   -0.6230    0.0120   -1.3180 H   0  0
   -3.6520    1.1470   -0.1930 H   0  0
   -2.7210    0.9880   -1.6800 H   0  0
   -3.0200    2.5820   -0.9940 H   0  0
   -1.9470    2.7090    1.7770 H   0  0
   -0.8180    1.3990    2.1130 H   0  0
   -2.5350    1.0550    1.9220 H   0  0
   -1.6050    3.8400   -3.7580 H   0  0
   -0.7130    2.4630   -4.6130 H   0  0
   -2.4530    2.4160   -4.3540 H   0  0
   -3.0800   -1.4140    1.1910 H   0  0
   -1.3140   -2.1720    2.2850 H   0  0
   -1.1950   -0.4570    2.4900 H   0  0
   -2.1600   -0.7580   -1.5840 H   0  0
   -3.0610   -2.2270   -1.2150 H   0  0
   -1.8480   -2.2340   -2.4920 H   0  0
   -0.5310   -3.9200    0.8440 H   0  0
   -1.4470   -4.3870   -0.5860 H   0  0
   -2.2500   -3.5530    0.7420 H   0  0
    0.8980   -3.1640   -1.0210 H   0  0
    1.0080   -1.4840   -0.5040 H   0  0
    0.3810   -1.8730   -2.1020 H   0  0
    1.2320    0.6900    2.0120 H   0  0
    1.0820   -3.5820    1.8650 H   0  0
    4.1350    0.9120    2.1580 H   0  0
    3.8280   -4.0140    1.9770 H   0  0
    6.0490   -2.8650    2.1210 H   0  0
  1  2  1  0
  2  3  2  0
  2  4  1  0
  3  5  1  0
  4  6  2  0
  5  7  2  0
  5  8  1  0
  7  9  1  0
  8 10  1  0
  8 11  1  0
  8 12  1  0
  9 13  1  0
 10 14  1  0
 14 15  1  0
 14 16  1  0
 14 17  1  0
 16 18  1  0
 16 19  1  0
 16 20  1  0
 17 21  1  0
 21 22  1  0
 21 23  2  0
 22 24  1  0
 23 25  1  0
 24 26  1  0
 25 27  1  0
 26 28  2  0
 27 29  2  0
  6  7  1  0
 24 25  2  0
 28 29  1  0
  3 30  1  0
  4 31  1  0
  6 32  1  0
 10 33  1  0
 10 34  1  0
 11 35  1  0
 11 36  1  0
 11 37  1  0
 12 38  1  0
 12 39  1  0
 12 40  1  0
 13 41  1  0
 13 42  1  0
 13 43  1  0
 15 44  1  0
 17 45  1  0
 17 46  1  0
 18 47  1  0
 18 48  1  0
 18 49  1  0
 19 50  1  0
 19 51  1  0
 19 52  1  0
 20 53  1  0
 20 54  1  0
 20 55  1  0
 22 56  1  0
 23 57  1  0
 26 58  1  0
 27 59  1  0
 29 60  1  0
M  END
> <Name>
CHEMBL3233272

> <IC50 nM>
8

> <Molecule_ChEMBL_ID>
CHEMBL3233272

> <Smiles>
COc1ccc(F)cc1C(C)(C)CC(O)(Cc1cc2ccncc2[nH]1)C(C)(C)C

$$$$
CHEMBL4096901
  SciTegic08162514323D

 47 49  0  0  1  0            999 V2000
   -1.7170   -0.6020   -1.7970 O   0  0
   -1.7230    0.4140   -0.9180 C   0  0
   -2.9650   -1.1720   -2.1640 C   0  0
   -2.9370    0.8790   -0.4370 N   0  0
   -0.4840    0.9920   -0.5060 C   0  0
   -2.7320   -2.3110   -3.1560 C   0  0
   -2.9650    1.9550    0.4380 C   0  0
   -0.5080    2.1270    0.3670 C   0  0
    0.8150    0.4330   -0.9880 C   0  0  1  0  0  0
   -1.7690    2.6010    0.8520 C   0  0
    0.6500    2.7340    0.7110 N   0  0
    2.0470    1.2210   -0.5330 C   0  0
    0.9240   -1.0080   -0.5720 C   0  0
   -1.8730    3.7480    1.7780 C   0  0
    1.8910    2.3100    0.2720 C   0  0
    3.3580    0.7930   -0.9650 C   0  0
    0.9400   -1.3540    0.7930 C   0  0
    1.0120   -2.0060   -1.5580 C   0  0
    3.0980    3.1070    0.7210 C   0  0
    4.4220    0.4470   -1.3100 N   0  0
    0.8560   -0.4200    1.7210 O   0  0
    1.0410   -2.7070    1.1660 C   0  0
    1.1150   -3.3560   -1.1870 C   0  0
    0.8730   -0.8260    3.0800 C   0  0
    1.1290   -3.7010    0.1740 C   0  0
    1.2330   -5.0820    0.5700 C   0  0
    1.3170   -6.1960    0.8890 N   0  0
   -3.4510   -1.5410   -1.2620 H   0  0
   -3.5780   -0.3910   -2.6110 H   0  0
   -3.6780   -2.7680   -3.4470 H   0  0
   -2.2250   -1.9470   -4.0510 H   0  0
   -2.1090   -3.0880   -2.7130 H   0  0
   -3.9180    2.3050    0.8070 H   0  0
    0.8180    0.4940   -2.0700 H   0  0
    0.6330    3.5530    1.2870 H   0  0
   -2.8910    3.9860    2.0840 H   0  0
   -1.4490    4.6350    1.3070 H   0  0
   -1.2950    3.5390    2.6780 H   0  0
    1.0020   -1.7420   -2.6030 H   0  0
    3.8240    3.2810   -0.0740 H   0  0
    3.6100    2.5820    1.5280 H   0  0
    2.7810    4.0780    1.1020 H   0  0
    1.0530   -2.9610    2.2170 H   0  0
    1.1820   -4.1130   -1.9490 H   0  0
    0.8070   -0.0350    3.8280 H   0  0
    1.7970   -1.3770    3.2600 H   0  0
    0.0410   -1.5100    3.2420 H   0  0
  1  2  1  0
  1  3  1  0
  2  4  2  0
  2  5  1  0
  3  6  1  0
  4  7  1  0
  5  8  2  0
  5  9  1  0
  7 10  2  0
  8 11  1  0
  9 12  1  0
  9 13  1  0
 10 14  1  0
 11 15  1  0
 12 16  1  0
 13 17  2  0
 13 18  1  0
 15 19  1  0
 16 20  3  0
 17 21  1  0
 17 22  1  0
 18 23  2  0
 21 24  1  0
 22 25  2  0
 25 26  1  0
 26 27  3  0
  8 10  1  0
 12 15  2  0
 23 25  1  0
  3 28  1  0
  3 29  1  0
  6 30  1  0
  6 31  1  0
  6 32  1  0
  7 33  1  0
  9 34  1  0
 11 35  1  0
 14 36  1  0
 14 37  1  0
 14 38  1  0
 18 39  1  0
 19 40  1  0
 19 41  1  0
 19 42  1  0
 22 43  1  0
 23 44  1  0
 24 45  1  0
 24 46  1  0
 24 47  1  0
M  END
> <Name>
CHEMBL4096901

> <IC50 nM>
5800

> <Molecule_ChEMBL_ID>
CHEMBL4096901

> <Smiles>
CCOc1ncc(C)c2c1[C@H](c1ccc(C#N)cc1OC)C(C#N)=C(C)N2

$$$$
CHEMBL4446696
  SciTegic08162514323D

 51 55  0  0  1  0            999 V2000
    5.9180    3.6990    0.1990 F   0  0
    5.1000    2.6500    0.1660 C   0  0
    3.7170    2.8340    0.3360 C   0  0
    5.6170    1.3590   -0.0370 C   0  0
    2.8490    1.7270    0.3030 C   0  0
    4.7540    0.2520   -0.0700 C   0  0
    3.3670    0.4320    0.0980 C   0  0
    2.5310   -0.6370    0.0640 N   0  0
    2.7750   -1.8280    0.6780 N   0  0
    1.3340   -0.6900   -0.5700 C   0  0
    1.7850   -2.7420    0.4860 C   0  0
    0.9280   -1.9860   -0.3110 C   0  0
    0.5530    0.2830   -1.3550 C   0  0
   -0.3830   -2.4410   -0.9360 C   0  0
   -0.7360   -0.0160   -1.6370 C   0  0
   -1.4320   -1.2680   -1.0570 C   0  0  2  0  0  0
   -2.1470   -0.9260    0.3260 C   0  0  1  0  0  0
   -2.5140   -1.7170   -2.0760 C   0  0
   -2.2250   -2.0840    1.1390 O   0  0
   -1.3910    0.0740    1.1470 C   0  0
   -3.6290   -0.4650    0.1540 C   0  0
   -3.5960   -0.6540   -2.3630 C   0  0
   -1.7740    1.4280    1.1350 C   0  0
   -0.2990   -0.3400    1.9280 C   0  0
   -3.8690    0.2680   -1.1660 C   0  0
   -1.0630    2.3650    1.9040 C   0  0
    0.4120    0.5980    2.6970 C   0  0
    0.0290    1.9510    2.6860 C   0  0
    3.3140    3.8240    0.4920 H   0  0
    6.6800    1.2150   -0.1660 H   0  0
    1.7890    1.8890    0.4340 H   0  0
    5.1700   -0.7320   -0.2290 H   0  0
    1.7280   -3.7540    0.8610 H   0  0
    0.9980    1.2090   -1.6930 H   0  0
   -0.1330   -2.8090   -1.9320 H   0  0
   -0.7790   -3.3150   -0.4160 H   0  0
   -1.2760    0.6620   -2.2810 H   0  0
   -2.0610   -2.0270   -3.0180 H   0  0
   -3.0040   -2.6070   -1.6820 H   0  0
   -2.6740   -1.8280    1.9590 H   0  0
   -3.9550    0.1600    0.9860 H   0  0
   -4.3130   -1.3180    0.1640 H   0  0
   -3.3170   -0.0470   -3.2250 H   0  0
   -4.5160   -1.1660   -2.6480 H   0  0
   -2.6120    1.7520    0.5350 H   0  0
    0.0000   -1.3790    1.9410 H   0  0
   -4.8910    0.6430   -1.2110 H   0  0
   -3.2270    1.1480   -1.2070 H   0  0
   -1.3580    3.4040    1.8950 H   0  0
    1.2500    0.2790    3.2970 H   0  0
    0.5740    2.6720    3.2750 H   0  0
  1  2  1  0
  2  3  2  0
  2  4  1  0
  3  5  1  0
  4  6  2  0
  5  7  2  0
  7  8  1  0
  8  9  1  0
  8 10  1  0
  9 11  2  0
 10 12  2  0
 10 13  1  0
 12 14  1  0
 13 15  2  0
 16 14  1  0
 16 17  1  0
 16 18  1  0
 17 19  1  0
 17 20  1  0
 17 21  1  0
 18 22  1  0
 20 23  2  0
 20 24  1  0
 21 25  1  0
 23 26  1  0
 24 27  2  0
 26 28  2  0
  6  7  1  0
 11 12  1  0
 16 15  1  0
 22 25  1  0
 27 28  1  0
  3 29  1  0
  4 30  1  0
  5 31  1  0
  6 32  1  0
 11 33  1  0
 13 34  1  0
 14 35  1  0
 14 36  1  0
 15 37  1  0
 18 38  1  0
 18 39  1  0
 19 40  1  0
 21 41  1  0
 21 42  1  0
 22 43  1  0
 22 44  1  0
 23 45  1  0
 24 46  1  0
 25 47  1  0
 25 48  1  0
 26 49  1  0
 27 50  1  0
 28 51  1  0
M  END
> <Name>
CHEMBL4446696

> <IC50 nM>
1012

> <Molecule_ChEMBL_ID>
CHEMBL4446696

> <Smiles>
O[C@]1(c2ccccc2)CCCC[C@@]12C=Cc1c(cnn1-c1ccc(F)cc1)C2

$$$$
CHEMBL4449031
  SciTegic08162514323D

 51 55  0  0  1  0            999 V2000
   -6.9120   -1.3200    2.0610 F   0  0
   -5.8150   -1.0510    1.3570 C   0  0
   -4.6000   -0.7990    2.0200 C   0  0
   -5.8690   -1.0160   -0.0470 C   0  0
   -3.4400   -0.5140    1.2790 C   0  0
   -4.7090   -0.7300   -0.7890 C   0  0
   -3.4920   -0.4780   -0.1270 C   0  0
   -2.3710   -0.2030   -0.8440 N   0  0
   -2.3200    0.6540   -1.9000 N   0  0
   -1.1390   -0.7270   -0.6210 C   0  0
   -1.0800    0.7480   -2.4530 C   0  0
   -0.3910   -0.1410   -1.6290 C   0  0
   -0.6040   -1.6680    0.3790 C   0  0
    1.0760   -0.5290   -1.7560 C   0  0
    0.7340   -1.8420    0.4430 C   0  0
    1.7270   -1.0210   -0.4040 C   0  0  2  0  0  0
    2.2870    0.1910    0.4360 C   0  0  2  0  0  0
    2.9020   -1.9690   -0.7680 C   0  0
    2.7930   -0.2890    1.6720 O   0  0
    1.2340    1.1910    0.7810 C   0  0
    3.4710    0.9000   -0.2750 C   0  0
    4.0390   -1.2500   -1.5140 C   0  0
    0.5610    1.1090    2.0140 C   0  0
    0.9140    2.2190   -0.1270 C   0  0
    4.5840   -0.0700   -0.7030 C   0  0
   -0.4320    2.0530    2.3360 C   0  0
   -0.0760    3.1600    0.1990 C   0  0
   -0.7500    3.0780    1.4300 C   0  0
   -4.5550   -0.8240    3.1000 H   0  0
   -6.7990   -1.2070   -0.5590 H   0  0
   -2.5160   -0.3240    1.8090 H   0  0
   -4.7720   -0.7070   -1.8670 H   0  0
   -0.7640    1.3520   -3.2930 H   0  0
   -1.2640   -2.2050    1.0430 H   0  0
    1.6370    0.2870   -2.2050 H   0  0
    1.1090   -1.3380   -2.4880 H   0  0
    1.1190   -2.5840    1.1250 H   0  0
    3.3160   -2.4240    0.1350 H   0  0
    2.5450   -2.8010   -1.3770 H   0  0
    3.1930    0.4690    2.1310 H   0  0
    3.1170    1.4320   -1.1600 H   0  0
    3.9020    1.6720    0.3630 H   0  0
    3.6820   -0.8980   -2.4820 H   0  0
    4.8440   -1.9550   -1.7230 H   0  0
    0.8010    0.3240    2.7150 H   0  0
    1.4280    2.2890   -1.0740 H   0  0
    5.3340    0.4630   -1.2870 H   0  0
    5.0980   -0.4490    0.1820 H   0  0
   -0.9470    1.9880    3.2830 H   0  0
   -0.3200    3.9490   -0.4980 H   0  0
   -1.5120    3.8030    1.6800 H   0  0
  1  2  1  0
  2  3  2  0
  2  4  1  0
  3  5  1  0
  4  6  2  0
  5  7  2  0
  7  8  1  0
  8  9  1  0
  8 10  1  0
  9 11  2  0
 10 12  2  0
 10 13  1  0
 12 14  1  0
 13 15  2  0
 16 14  1  0
 16 17  1  0
 16 18  1  0
 17 19  1  0
 17 20  1  0
 17 21  1  0
 18 22  1  0
 20 23  2  0
 20 24  1  0
 21 25  1  0
 23 26  1  0
 24 27  2  0
 26 28  2  0
  6  7  1  0
 11 12  1  0
 16 15  1  0
 22 25  1  0
 27 28  1  0
  3 29  1  0
  4 30  1  0
  5 31  1  0
  6 32  1  0
 11 33  1  0
 13 34  1  0
 14 35  1  0
 14 36  1  0
 15 37  1  0
 18 38  1  0
 18 39  1  0
 19 40  1  0
 21 41  1  0
 21 42  1  0
 22 43  1  0
 22 44  1  0
 23 45  1  0
 24 46  1  0
 25 47  1  0
 25 48  1  0
 26 49  1  0
 27 50  1  0
 28 51  1  0
M  END
> <Name>
CHEMBL4449031

> <IC50 nM>
0.41

> <Molecule_ChEMBL_ID>
CHEMBL4449031

> <Smiles>
O[C@@]1(c2ccccc2)CCCC[C@@]12C=Cc1c(cnn1-c1ccc(F)cc1)C2

$$$$
CHEMBL204717
  SciTegic08162514323D

 54 56  0  0  0  0            999 V2000
   -3.0800   -2.1950   -0.5310 S   0  0
   -1.7810   -1.2660    0.3300 C   0  0
   -2.4380   -3.8730   -0.2710 C   0  0
   -2.0880    0.2110    0.2600 C   0  0
   -3.3650   -4.8710   -0.9120 C   0  0
   -1.0020    1.2350    0.3110 C   0  0
   -3.3730    0.6040    0.1490 C   0  0
   -2.9180   -6.1190   -1.1210 C   0  0
   -1.3360    2.6170    0.2380 C   0  0
    0.3540    0.8340    0.4280 C   0  0
   -3.7750    2.0670    0.0720 C   0  0
   -2.6270    3.0200    0.1250 N   0  0
   -0.2950    3.5820    0.2890 C   0  0
    1.3870    1.8010    0.4790 C   0  0
   -4.5270    2.2850   -1.2420 C   0  0
   -4.7090    2.3650    1.2480 C   0  0
    1.0550    3.1760    0.4080 C   0  0
    2.7790    1.3870    0.6000 C   0  0
    3.3070    0.3830   -0.2420 C   0  0
    3.6000    1.9960    1.5680 C   0  0
    2.5530   -0.1990   -1.1540 O   0  0
    4.6540   -0.0020   -0.1070 C   0  0
    4.9420    1.6080    1.6970 C   0  0
    2.4710   -1.6170   -1.1460 C   0  0
    5.1580   -0.9370   -0.8870 O   0  0
    5.4690    0.6090    0.8610 C   0  0
    6.5160   -1.3070   -0.6950 C   0  0
   -1.7340   -1.5860    1.3710 H   0  0
   -0.8180   -1.4670   -0.1410 H   0  0
   -2.3610   -4.0720    0.7970 H   0  0
   -1.4450   -3.9530   -0.7150 H   0  0
   -4.3810   -4.6840   -1.2300 H   0  0
   -4.1480   -0.1460    0.1130 H   0  0
   -3.4630   -6.9370   -1.5700 H   0  0
   -1.9040   -6.3070   -0.8030 H   0  0
    0.6060   -0.2170    0.4810 H   0  0
   -2.8420    3.9960    0.0720 H   0  0
   -0.5160    4.6390    0.2380 H   0  0
   -3.8980    2.0820   -2.1090 H   0  0
   -4.8790    3.3150   -1.3200 H   0  0
   -5.3970    1.6310   -1.3030 H   0  0
   -4.2110    2.2230    2.2070 H   0  0
   -5.5800    1.7130    1.2230 H   0  0
   -5.0630    3.3970    1.2070 H   0  0
    1.8260    3.9320    0.4450 H   0  0
    3.2090    2.7680    2.2190 H   0  0
    5.5700    2.0760    2.4400 H   0  0
    1.6060   -2.0590   -1.6390 H   0  0
    2.4710   -1.9530   -0.1090 H   0  0
    3.3650   -2.0140   -1.6250 H   0  0
    6.5020    0.3150    0.9630 H   0  0
    6.6430   -1.6150    0.3440 H   0  0
    6.7790   -2.0450   -1.4530 H   0  0
    7.1350   -0.4260   -0.8570 H   0  0
  1  2  1  0
  1  3  1  0
  2  4  1  0
  3  5  1  0
  4  6  1  0
  4  7  2  0
  5  8  2  0
  6  9  2  0
  6 10  1  0
  7 11  1  0
  9 12  1  0
  9 13  1  0
 10 14  2  0
 11 15  1  0
 11 16  1  0
 13 17  2  0
 14 18  1  0
 18 19  2  0
 18 20  1  0
 19 21  1  0
 19 22  1  0
 20 23  2  0
 21 24  1  0
 22 25  1  0
 22 26  2  0
 25 27  1  0
 11 12  1  0
 14 17  1  0
 23 26  1  0
  2 28  1  0
  2 29  1  0
  3 30  1  0
  3 31  1  0
  5 32  1  0
  7 33  1  0
  8 34  1  0
  8 35  1  0
 10 36  1  0
 12 37  1  0
 13 38  1  0
 15 39  1  0
 15 40  1  0
 15 41  1  0
 16 42  1  0
 16 43  1  0
 16 44  1  0
 17 45  1  0
 20 46  1  0
 23 47  1  0
 24 48  1  0
 24 49  1  0
 24 50  1  0
 26 51  1  0
 27 52  1  0
 27 53  1  0
 27 54  1  0
M  END
> <Name>
CHEMBL204717

> <IC50 nM>
2000

> <Molecule_ChEMBL_ID>
CHEMBL204717

> <Smiles>
C=CCSCC1=CC(C)(C)Nc2ccc(-c3cccc(OC)c3OC)cc21

$$$$
CHEMBL383521
  SciTegic08162514323D

 53 55  0  0  0  0            999 V2000
   -0.9240   -1.9450   -1.7520 S   0  0
   -1.7950   -1.4360   -0.2440 C   0  0
   -0.7170   -3.7070   -1.3690 C   0  0
   -2.1040    0.0410   -0.3140 C   0  0
    0.0000   -4.3850   -2.5060 C   0  0
   -1.0180    1.0640   -0.2640 C   0  0
   -3.3870    0.4340   -0.4240 C   0  0
    0.5410   -5.5960   -2.2890 C   0  0
   -1.3500    2.4470   -0.3340 C   0  0
    0.3400    0.6640   -0.1440 C   0  0
   -3.7890    1.8960   -0.5020 C   0  0
   -2.6410    2.8500   -0.4470 N   0  0
   -0.3090    3.4120   -0.2830 C   0  0
    1.3710    1.6330   -0.0960 C   0  0
   -4.5410    2.1150   -1.8160 C   0  0
   -4.7230    2.1950    0.6740 C   0  0
    1.0390    3.0060   -0.1660 C   0  0
    2.7640    1.2170    0.0270 C   0  0
    3.1520    0.2850    1.0140 C   0  0
    3.7270    1.7560   -0.8500 C   0  0
    2.2700   -0.2320    1.8460 O   0  0
    4.5000   -0.1000    1.1110 C   0  0
    5.0720    1.3650   -0.7440 C   0  0
    2.7460   -1.0800    2.8810 C   0  0
    5.4590    0.4370    0.2360 C   0  0
    1.5800   -1.4980    3.7750 C   0  0
   -2.7230   -2.0020   -0.1500 H   0  0
   -1.1720   -1.6430    0.6250 H   0  0
   -1.6950   -4.1640   -1.2230 H   0  0
   -0.1410   -3.8150   -0.4490 H   0  0
    0.1290   -3.9920   -3.5020 H   0  0
   -4.1640   -0.3160   -0.4610 H   0  0
    1.0840   -6.2010   -3.0000 H   0  0
    0.4120   -5.9900   -1.2930 H   0  0
    0.5900   -0.3870   -0.0920 H   0  0
   -2.8570    3.8280   -0.5000 H   0  0
   -0.5310    4.4690   -0.3360 H   0  0
   -3.9120    1.9120   -2.6840 H   0  0
   -4.8930    3.1450   -1.8930 H   0  0
   -5.4120    1.4610   -1.8750 H   0  0
   -4.2270    2.0530    1.6350 H   0  0
   -5.5960    1.5430    0.6500 H   0  0
   -5.0760    3.2270    0.6330 H   0  0
    1.8130    3.7620   -0.1290 H   0  0
    3.4450    2.4710   -1.6110 H   0  0
    4.8050   -0.8130    1.8650 H   0  0
    5.8070    1.7790   -1.4180 H   0  0
    3.2110   -1.9530    2.4200 H   0  0
    3.4940   -0.5310    3.4530 H   0  0
    6.4940    0.1370    0.3180 H   0  0
    1.9240   -2.1520    4.5760 H   0  0
    1.0980   -0.6230    4.2150 H   0  0
    0.8280   -2.0390    3.2030 H   0  0
  1  2  1  0
  1  3  1  0
  2  4  1  0
  3  5  1  0
  4  6  1  0
  4  7  2  0
  5  8  2  0
  6  9  2  0
  6 10  1  0
  7 11  1  0
  9 12  1  0
  9 13  1  0
 10 14  2  0
 11 15  1  0
 11 16  1  0
 13 17  2  0
 14 18  1  0
 18 19  2  0
 18 20  1  0
 19 21  1  0
 19 22  1  0
 20 23  2  0
 21 24  1  0
 22 25  2  0
 24 26  1  0
 11 12  1  0
 14 17  1  0
 23 25  1  0
  2 27  1  0
  2 28  1  0
  3 29  1  0
  3 30  1  0
  5 31  1  0
  7 32  1  0
  8 33  1  0
  8 34  1  0
 10 35  1  0
 12 36  1  0
 13 37  1  0
 15 38  1  0
 15 39  1  0
 15 40  1  0
 16 41  1  0
 16 42  1  0
 16 43  1  0
 17 44  1  0
 20 45  1  0
 22 46  1  0
 23 47  1  0
 24 48  1  0
 24 49  1  0
 25 50  1  0
 26 51  1  0
 26 52  1  0
 26 53  1  0
M  END
> <Name>
CHEMBL383521

> <IC50 nM>
2000

> <Molecule_ChEMBL_ID>
CHEMBL383521

> <Smiles>
C=CCSCC1=CC(C)(C)Nc2ccc(-c3ccccc3OCC)cc21

$$$$
CHEMBL4571052
  SciTegic08162514323D

 72 76  0  0  1  0            999 V2000
   -6.0020   -0.4770   -2.7320 O   0  0
   -4.9690   -0.3670   -2.1130 C   0  0
   -4.3890   -1.5250   -1.4100 C   0  0
   -4.2360    0.9430   -2.0410 C   0  0
   -3.1820   -1.4860   -0.8050 C   0  0
   -2.7230    0.7090   -1.9920 C   0  0
   -2.2850   -0.2500   -0.8520 C   0  0  2  0  0  0
   -2.6910   -2.6890   -0.0210 C   0  0
   -0.7810   -0.6390   -1.0550 C   0  0  1  0  0  0
   -2.5210    0.4320    0.5060 C   0  0
   -1.2190   -3.0160   -0.2770 C   0  0
    0.2230    0.5570   -1.1090 C   0  0  1  0  0  0
   -0.3240   -1.7750   -0.1040 C   0  0  1  0  0  0
    0.1210    1.4920    0.0510 C   0  0
    1.6820    0.0840   -1.3130 C   0  0
    1.1290   -2.1660   -0.4340 C   0  0  1  0  0  0
    0.3110    2.8730   -0.1410 C   0  0
   -0.1620    0.9940    1.3340 C   0  0
    2.1040   -0.9880   -0.2870 C   0  0  1  0  0  0
    1.7770   -3.2320    0.4510 C   0  0
    0.2150    3.7560    0.9490 C   0  0
   -0.2580    1.8750    2.4260 C   0  0
    3.4670   -1.7030   -0.4840 C   0  0  2  0  0  0
    2.0410   -0.4450    1.1540 C   0  0
    3.2890   -2.9820    0.3610 C   0  0
   -0.0700    3.2580    2.2360 C   0  0
    4.5430   -0.9220    0.0100 O   0  0
    3.7600   -2.0270   -1.8930 C   0  0
   -0.1640    4.1170    3.2990 N   0  0
    4.0100   -2.2830   -3.0270 C   0  0
   -0.4610    3.6190    4.6500 C   0  0
    0.0330    5.5590    3.0980 C   0  0
    4.3260   -2.5840   -4.4200 C   0  0
   -4.9690   -2.4360   -1.3770 H   0  0
   -4.4920    1.5630   -2.9000 H   0  0
   -4.5610    1.4860   -1.1520 H   0  0
   -2.2170    1.6700   -1.8970 H   0  0
   -2.4040    0.2990   -2.9530 H   0  0
   -2.8320   -2.4840    1.0410 H   0  0
   -3.3010   -3.5680   -0.2420 H   0  0
   -0.7300   -1.0780   -2.0570 H   0  0
   -3.5840    0.5490    0.7230 H   0  0
   -2.0660    1.4220    0.5230 H   0  0
   -2.0800   -0.1540    1.3130 H   0  0
   -0.9060   -3.8070    0.4020 H   0  0
   -1.1090   -3.4120   -1.2870 H   0  0
   -0.0270    1.1620   -1.9770 H   0  0
   -0.3930   -1.4360    0.9300 H   0  0
    2.3750    0.9260   -1.2790 H   0  0
    1.7600   -0.3160   -2.3240 H   0  0
    1.1480   -2.5250   -1.4550 H   0  0
    0.5290    3.2600   -1.1250 H   0  0
   -0.3090   -0.0640    1.4860 H   0  0
    1.4470   -3.1270    1.4750 H   0  0
    1.5140   -4.2300    0.1310 H   0  0
    0.3610    4.8130    0.7830 H   0  0
   -0.4780    1.4750    3.4060 H   0  0
    2.9510   -0.6640    1.7110 H   0  0
    1.2030   -0.8850    1.6970 H   0  0
    1.9040    0.6370    1.1520 H   0  0
    3.6760   -2.8520    1.3610 H   0  0
    3.8110   -3.8380   -0.0510 H   0  0
    5.3320   -1.4860    0.0060 H   0  0
   -0.5940    2.5390    4.7210 H   0  0
   -1.3710    4.0920    5.0140 H   0  0
    0.3520    3.9010    5.3200 H   0  0
    0.2480    5.8540    2.0700 H   0  0
    0.8590    5.8990    3.7230 H   0  0
   -0.8630    6.0920    3.4140 H   0  0
    5.2950   -3.0760   -4.4880 H   0  0
    4.3590   -1.6660   -5.0060 H   0  0
    3.5680   -3.2420   -4.8480 H   0  0
  1  2  2  0
  2  3  1  0
  2  4  1  0
  3  5  2  0
  4  6  1  0
  5  7  1  0
  5  8  1  0
  7  9  1  0
  7 10  1  0
  8 11  1  0
  9 12  1  0
  9 13  1  0
 12 14  1  0
 12 15  1  0
 13 16  1  0
 14 17  2  0
 14 18  1  0
 15 19  1  0
 16 20  1  0
 17 21  1  0
 18 22  2  0
 19 23  1  0
 19 24  1  0
 20 25  1  0
 21 26  2  0
 23 27  1  0
 23 28  1  0
 26 29  1  0
 28 30  3  0
 29 31  1  0
 29 32  1  0
 30 33  1  0
  6  7  1  0
 13 11  1  0
 16 19  1  0
 22 26  1  0
 23 25  1  0
  3 34  1  0
  4 35  1  0
  4 36  1  0
  6 37  1  0
  6 38  1  0
  8 39  1  0
  8 40  1  0
  9 41  1  0
 10 42  1  0
 10 43  1  0
 10 44  1  0
 11 45  1  0
 11 46  1  0
 12 47  1  0
 13 48  1  0
 15 49  1  0
 15 50  1  0
 16 51  1  0
 17 52  1  0
 18 53  1  0
 20 54  1  0
 20 55  1  0
 21 56  1  0
 22 57  1  0
 24 58  1  0
 24 59  1  0
 24 60  1  0
 25 61  1  0
 25 62  1  0
 27 63  1  0
 31 64  1  0
 31 65  1  0
 31 66  1  0
 32 67  1  0
 32 68  1  0
 32 69  1  0
 33 70  1  0
 33 71  1  0
 33 72  1  0
M  END
> <Name>
CHEMBL4571052

> <IC50 nM>
29

> <Molecule_ChEMBL_ID>
CHEMBL4571052

> <Smiles>
CC#C[C@]1(O)CC[C@H]2[C@@H]3CCC4=CC(=O)CC[C@]4(C)[C@H]3[C@@H](c3ccc(N(C)C)cc3)C[C@@]21C

$$$$
CHEMBL4545820
  SciTegic08162514323D

 83 88  0  0  1  0            999 V2000
   -6.2380   -1.2740   -2.6370 O   0  0
   -5.2310   -1.0240   -2.0180 C   0  0
   -4.5820   -2.0570   -1.1910 C   0  0
   -4.5960    0.3420   -2.0700 C   0  0
   -3.3870   -1.8710   -0.5920 C   0  0
   -3.0700    0.2300   -2.0000 C   0  0
   -2.5800   -0.5860   -0.7790 C   0  0  2  0  0  0
   -2.8200   -2.9470    0.3120 C   0  0
   -1.0450   -0.8380   -0.8630 C   0  0  1  0  0  0
   -1.3130   -3.1500    0.1330 C   0  0
   -0.1950    0.4650   -0.9240 C   0  0  1  0  0  0
   -0.5530   -1.8180    0.2300 C   0  0  1  0  0  0
   -0.5310    1.4360    0.1600 C   0  0
    1.3220    0.1680   -0.9770 C   0  0
    0.9510   -2.0700    0.0290 C   0  0  1  0  0  0
   -1.2660    1.0100    1.2810 C   0  0
   -0.1150    2.7730    0.0610 C   0  0
    1.7770   -0.7810    0.1520 C   0  0  1  0  0  0
    1.6410   -2.9980    1.0310 C   0  0
   -1.5840    1.9220    2.3030 C   0  0
   -0.4320    3.6880    1.0800 C   0  0
    3.2230   -1.3540    0.0980 C   0  0  2  0  0  0
    1.5530   -0.1520    1.5370 C   0  0
    3.1190   -2.5860    1.0230 C   0  0
   -1.1660    3.2640    2.2030 C   0  0
    4.1720   -0.4260    0.6000 O   0  0
    3.6480   -1.7380   -1.2580 C   0  0
   -1.4750    4.1540    3.1990 N   0  0
    4.0040   -2.0510   -2.3500 C   0  0
   -1.6660    5.5980    2.9160 C   0  0
   -1.6290    3.7190    4.6090 C   0  0
    4.4450   -2.4360   -3.6880 C   0  0
   -2.8570    6.1860    3.7050 C   0  0
   -2.8200    4.4180    5.2990 C   0  0
    3.4690   -3.4670   -4.2520 C   0  0
    4.4670   -1.1910   -4.5760 C   0  0
    5.8480   -3.0350   -3.5920 C   0  0
   -2.7830    5.8220    5.0780 O   0  0
   -5.0980   -2.9980   -1.0630 H   0  0
   -4.8950    0.8550   -2.9840 H   0  0
   -4.9670    0.9370   -1.2360 H   0  0
   -2.6470    1.2360   -1.9770 H   0  0
   -2.7070   -0.2320   -2.9180 H   0  0
   -2.7830    0.0100    0.1090 H   0  0
   -3.0220   -2.6640    1.3480 H   0  0
   -3.3340   -3.8970    0.1500 H   0  0
   -0.8770   -1.3460   -1.8150 H   0  0
   -0.9550   -3.8520    0.8890 H   0  0
   -1.1250   -3.6170   -0.8360 H   0  0
   -0.4380    0.9780   -1.8540 H   0  0
   -0.7320   -1.3890    1.2150 H   0  0
    1.9060    1.0920   -0.9510 H   0  0
    1.5350   -0.2810   -1.9470 H   0  0
    1.0840   -2.4960   -0.9570 H   0  0
   -1.5880   -0.0180    1.3610 H   0  0
    0.4490    3.1050   -0.7990 H   0  0
    1.2270   -2.8650    2.0210 H   0  0
    1.5140   -4.0370    0.7680 H   0  0
   -2.1480    1.5760    3.1560 H   0  0
   -0.1020    4.7130    0.9860 H   0  0
    2.2930   -0.4900    2.2620 H   0  0
    0.5660   -0.4100    1.9240 H   0  0
    1.6130    0.9360    1.4800 H   0  0
    3.4180   -2.3460    2.0370 H   0  0
    3.7600   -3.4020    0.7130 H   0  0
    4.9400   -0.9360    0.8960 H   0  0
   -0.7480    6.1230    3.1890 H   0  0
   -1.8160    5.7660    1.8480 H   0  0
   -0.7070    3.9570    5.1410 H   0  0
   -1.7560    2.6370    4.6680 H   0  0
   -3.8090    5.8380    3.3010 H   0  0
   -2.8540    7.2740    3.6430 H   0  0
   -3.7730    4.0310    4.9320 H   0  0
   -2.7930    4.2440    6.3730 H   0  0
    3.4080   -4.3540   -3.6210 H   0  0
    3.7770   -3.7850   -5.2460 H   0  0
    2.4670   -3.0450   -4.3320 H   0  0
    5.1310   -0.4220   -4.1840 H   0  0
    3.4690   -0.7600   -4.6600 H   0  0
    4.8070   -1.4430   -5.5820 H   0  0
    6.5510   -2.3110   -3.1840 H   0  0
    5.8440   -3.9240   -2.9610 H   0  0
    6.2090   -3.3300   -4.5780 H   0  0
  1  2  2  0
  2  3  1  0
  2  4  1  0
  3  5  2  0
  4  6  1  0
  5  7  1  0
  5  8  1  0
  9  7  1  0
  8 10  1  0
  9 11  1  0
  9 12  1  0
 11 13  1  0
 11 14  1  0
 12 15  1  0
 13 16  2  0
 13 17  1  0
 14 18  1  0
 15 19  1  0
 16 20  1  0
 17 21  2  0
 18 22  1  0
 18 23  1  0
 19 24  1  0
 20 25  2  0
 22 26  1  0
 22 27  1  0
 25 28  1  0
 27 29  3  0
 28 30  1  0
 28 31  1  0
 29 32  1  0
 30 33  1  0
 31 34  1  0
 32 35  1  0
 32 36  1  0
 32 37  1  0
 33 38  1  0
  7  6  1  0
 12 10  1  0
 15 18  1  0
 21 25  1  0
 22 24  1  0
 34 38  1  0
  3 39  1  0
  4 40  1  0
  4 41  1  0
  6 42  1  0
  6 43  1  0
  7 44  1  0
  8 45  1  0
  8 46  1  0
  9 47  1  0
 10 48  1  0
 10 49  1  0
 11 50  1  0
 12 51  1  0
 14 52  1  0
 14 53  1  0
 15 54  1  0
 16 55  1  0
 17 56  1  0
 19 57  1  0
 19 58  1  0
 20 59  1  0
 21 60  1  0
 23 61  1  0
 23 62  1  0
 23 63  1  0
 24 64  1  0
 24 65  1  0
 26 66  1  0
 30 67  1  0
 30 68  1  0
 31 69  1  0
 31 70  1  0
 33 71  1  0
 33 72  1  0
 34 73  1  0
 34 74  1  0
 35 75  1  0
 35 76  1  0
 35 77  1  0
 36 78  1  0
 36 79  1  0
 36 80  1  0
 37 81  1  0
 37 82  1  0
 37 83  1  0
M  END
> <Name>
CHEMBL4545820

> <IC50 nM>
10.3

> <Molecule_ChEMBL_ID>
CHEMBL4545820

> <Smiles>
CC(C)(C)C#C[C@]1(O)CC[C@H]2[C@@H]3CCC4=CC(=O)CC[C@@H]4[C@H]3[C@@H](c3ccc(N4CCOCC4)cc3)C[C@@]21C

$$$$
CHEMBL4468879
  SciTegic08162514323D

 78 82  0  0  1  0            999 V2000
   -6.0330   -2.2700   -2.3200 O   0  0
   -5.0980   -1.8180   -1.6990 C   0  0
   -4.2340   -2.6950   -0.8920 C   0  0
   -4.7750   -0.3460   -1.7260 C   0  0
   -3.1000   -2.2620   -0.2990 C   0  0
   -3.2600   -0.1370   -1.6800 C   0  0
   -2.5900   -0.8320   -0.4650 C   0  0  2  0  0  0
   -2.3030   -3.2010    0.5820 C   0  0
   -1.0310   -0.7870   -0.6440 C   0  0  1  0  0  0
   -3.0370   -0.1450    0.8340 C   0  0
   -0.8010   -3.1410    0.3050 C   0  0
   -0.4100    0.6450   -0.7480 C   0  0  1  0  0  0
   -0.2730   -1.6950    0.3590 C   0  0  1  0  0  0
   -0.7600    1.5510    0.3850 C   0  0
    1.1230    0.5900   -0.9630 C   0  0
    1.2290   -1.6890    0.0120 C   0  0  1  0  0  0
   -0.8790    2.9340    0.1680 C   0  0
   -0.9730    1.0210    1.6700 C   0  0
    1.8360   -0.2790    0.0940 C   0  0  1  0  0  0
    2.1510   -2.4860    0.9360 C   0  0
   -1.2090    3.7890    1.2340 C   0  0
   -1.3030    1.8730    2.7360 C   0  0
    3.3460   -0.5920   -0.1070 C   0  0  2  0  0  0
    1.6390    0.2790    1.5180 C   0  0
    3.5450   -1.8890    0.7150 C   0  0
   -1.4220    3.2600    2.5220 C   0  0
    4.1660    0.4490    0.3970 O   0  0
    3.7110   -0.7870   -1.5210 C   0  0
   -1.7440    4.0920    3.5610 N   0  0
    4.0180   -0.9260   -2.6620 C   0  0
   -1.9710    3.5610    4.9140 C   0  0
   -1.8670    5.5390    3.3340 C   0  0
    4.3990   -1.0740   -4.0640 C   0  0
    5.2560    0.1190   -4.4960 C   0  0
    5.1370   -2.3980   -4.2640 C   0  0
   -4.5370   -3.7250   -0.7670 H   0  0
   -5.1990    0.1150   -2.6190 H   0  0
   -5.2460    0.1370   -0.8670 H   0  0
   -3.0490    0.9340   -1.6740 H   0  0
   -2.8300   -0.5200   -2.6070 H   0  0
   -2.4820   -2.9260    1.6210 H   0  0
   -2.6540   -4.2290    0.4770 H   0  0
   -0.8440   -1.2380   -1.6230 H   0  0
   -4.1050   -0.2640    1.0100 H   0  0
   -2.8240    0.9240    0.7970 H   0  0
   -2.5100   -0.5590    1.6920 H   0  0
   -0.5960   -3.5820   -0.6740 H   0  0
   -0.2790   -3.7600    1.0350 H   0  0
   -0.8240    1.1270   -1.6310 H   0  0
   -0.4240   -1.3160    1.3690 H   0  0
    1.2930    0.1840   -1.9590 H   0  0
    1.5530    1.5920   -0.9780 H   0  0
    1.3460   -2.0800   -0.9920 H   0  0
   -0.7170    3.3460   -0.8180 H   0  0
   -0.8830   -0.0430    1.8420 H   0  0
    1.8500   -2.3560    1.9670 H   0  0
    2.1250   -3.5430    0.7290 H   0  0
   -1.2950    4.8500    1.0490 H   0  0
   -1.4630    1.4470    3.7190 H   0  0
    2.5740    0.3110    2.0760 H   0  0
    0.9360   -0.3340    2.0780 H   0  0
    1.2380    1.2930    1.4810 H   0  0
    4.1950   -2.5980    0.2230 H   0  0
    3.9960   -1.6890    1.6780 H   0  0
    5.0880    0.1540    0.3150 H   0  0
   -1.8610    2.4810    5.0040 H   0  0
   -2.9780    3.8220    5.2370 H   0  0
   -1.2670    4.0250    5.6040 H   0  0
   -1.6850    5.8580    2.3090 H   0  0
   -1.1600    6.0650    3.9770 H   0  0
   -2.8710    5.8590    3.6100 H   0  0
    3.4850   -1.0820   -4.6560 H   0  0
    4.7330    1.0640   -4.3590 H   0  0
    5.5280    0.0370   -5.5490 H   0  0
    6.1780    0.1600   -3.9160 H   0  0
    4.5140   -3.2380   -3.9530 H   0  0
    5.4180   -2.5310   -5.3090 H   0  0
    6.0510   -2.4240   -3.6680 H   0  0
  1  2  2  0
  2  3  1  0
  2  4  1  0
  3  5  2  0
  4  6  1  0
  5  7  1  0
  5  8  1  0
  7  9  1  0
  7 10  1  0
  8 11  1  0
  9 12  1  0
  9 13  1  0
 12 14  1  0
 12 15  1  0
 13 16  1  0
 14 17  2  0
 14 18  1  0
 15 19  1  0
 16 20  1  0
 17 21  1  0
 18 22  2  0
 19 23  1  0
 19 24  1  0
 20 25  1  0
 21 26  2  0
 23 27  1  0
 23 28  1  0
 26 29  1  0
 28 30  3  0
 29 31  1  0
 29 32  1  0
 30 33  1  0
 33 34  1  0
 33 35  1  0
  6  7  1  0
 13 11  1  0
 16 19  1  0
 22 26  1  0
 23 25  1  0
  3 36  1  0
  4 37  1  0
  4 38  1  0
  6 39  1  0
  6 40  1  0
  8 41  1  0
  8 42  1  0
  9 43  1  0
 10 44  1  0
 10 45  1  0
 10 46  1  0
 11 47  1  0
 11 48  1  0
 12 49  1  0
 13 50  1  0
 15 51  1  0
 15 52  1  0
 16 53  1  0
 17 54  1  0
 18 55  1  0
 20 56  1  0
 20 57  1  0
 21 58  1  0
 22 59  1  0
 24 60  1  0
 24 61  1  0
 24 62  1  0
 25 63  1  0
 25 64  1  0
 27 65  1  0
 31 66  1  0
 31 67  1  0
 31 68  1  0
 32 69  1  0
 32 70  1  0
 32 71  1  0
 33 72  1  0
 34 73  1  0
 34 74  1  0
 34 75  1  0
 35 76  1  0
 35 77  1  0
 35 78  1  0
M  END
> <Name>
CHEMBL4468879

> <IC50 nM>
62

> <Molecule_ChEMBL_ID>
CHEMBL4468879

> <Smiles>
CC(C)C#C[C@]1(O)CC[C@H]2[C@@H]3CCC4=CC(=O)CC[C@]4(C)[C@H]3[C@@H](c3ccc(N(C)C)cc3)C[C@@]21C

$$$$
CHEMBL4097001
  SciTegic08162514323D

 55 58  0  0  0  0            999 V2000
   -0.7050   -0.6140    2.3250 S   0  0
   -0.1530    0.4550    3.1390 O   0  0
   -0.4200   -1.9390    2.8490 O   0  0
   -0.0220   -0.5130    0.8590 N   0  0
   -2.4180   -0.4150    2.2560 C   0  0
    1.2410    0.0000    0.7260 C   0  0
   -0.7580   -0.9710   -0.3280 C   0  0
   -2.9650    0.7390    1.6670 C   0  0
   -3.2600   -1.4060    2.7900 C   0  0
    2.1990   -0.2130    1.7350 C   0  0
    1.5850    0.7410   -0.4200 C   0  0
   -1.2400   -2.4110   -0.1520 C   0  0
   -4.3600    0.9040    1.6080 C   0  0
   -4.6560   -1.2460    2.7350 C   0  0
    3.4950    0.3130    1.5970 C   0  0
    2.8820    1.2660   -0.5540 C   0  0
   -1.9270   -2.9110   -1.3720 C   0  0
   -5.2010   -0.0910    2.1440 C   0  0
    3.8400    1.0540    0.4530 C   0  0
   -1.1990   -3.6050   -2.3550 C   0  0
   -3.3060   -2.6910   -1.5430 C   0  0
   -6.6290    0.0750    2.0850 C   0  0
    5.0550    1.5470    0.3250 O   0  0
   -1.8500   -4.0780   -3.5080 C   0  0
   -3.9550   -3.1640   -2.6970 C   0  0
   -7.7800    0.2090    2.0380 N   0  0
    5.1860    2.7320   -0.2370 C   0  0
   -3.2270   -3.8570   -3.6790 C   0  0
    6.2790    2.9960   -1.0810 C   0  0
    4.2330    3.7380    0.0050 C   0  0
    6.4200    4.2600   -1.6810 C   0  0
    4.3720    5.0010   -0.5940 C   0  0
    5.4660    5.2630   -1.4370 C   0  0
   -0.1150   -0.8840   -1.2040 H   0  0
   -1.6000   -0.3020   -0.5080 H   0  0
   -2.3160    1.4990    1.2580 H   0  0
   -2.8370   -2.2900    3.2420 H   0  0
    1.9540   -0.7800    2.6230 H   0  0
    0.8630    0.9160   -1.2060 H   0  0
   -1.9120   -2.4910    0.7020 H   0  0
   -0.4060   -3.0690    0.0910 H   0  0
   -4.7680    1.7950    1.1530 H   0  0
   -5.2920   -2.0160    3.1480 H   0  0
    4.2270    0.1480    2.3740 H   0  0
    3.1420    1.8340   -1.4360 H   0  0
   -0.1410   -3.7780   -2.2300 H   0  0
   -3.8710   -2.1580   -0.7920 H   0  0
   -1.2900   -4.6110   -4.2630 H   0  0
   -5.0140   -2.9940   -2.8280 H   0  0
   -3.7270   -4.2210   -4.5660 H   0  0
    7.0140    2.2280   -1.2710 H   0  0
    3.3910    3.5410    0.6520 H   0  0
    7.2600    4.4600   -2.3290 H   0  0
    3.6390    5.7720   -0.4070 H   0  0
    5.5730    6.2340   -1.8980 H   0  0
  1  2  2  0
  1  3  2  0
  1  4  1  0
  1  5  1  0
  4  6  1  0
  4  7  1  0
  5  8  2  0
  5  9  1  0
  6 10  2  0
  6 11  1  0
  7 12  1  0
  8 13  1  0
  9 14  2  0
 10 15  1  0
 11 16  2  0
 12 17  1  0
 13 18  2  0
 15 19  2  0
 17 20  2  0
 17 21  1  0
 18 22  1  0
 19 23  1  0
 20 24  1  0
 21 25  2  0
 22 26  3  0
 23 27  1  0
 24 28  2  0
 27 29  2  0
 27 30  1  0
 29 31  1  0
 30 32  2  0
 31 33  2  0
 14 18  1  0
 16 19  1  0
 25 28  1  0
 32 33  1  0
  7 34  1  0
  7 35  1  0
  8 36  1  0
  9 37  1  0
 10 38  1  0
 11 39  1  0
 12 40  1  0
 12 41  1  0
 13 42  1  0
 14 43  1  0
 15 44  1  0
 16 45  1  0
 20 46  1  0
 21 47  1  0
 24 48  1  0
 25 49  1  0
 28 50  1  0
 29 51  1  0
 30 52  1  0
 31 53  1  0
 32 54  1  0
 33 55  1  0
M  END
> <Name>
CHEMBL4097001

> <IC50 nM>
30000

> <Molecule_ChEMBL_ID>
CHEMBL4097001

> <Smiles>
N#Cc1ccc(S(=O)(=O)N(CCc2ccccc2)c2ccc(Oc3ccccc3)cc2)cc1

$$$$
CHEMBL238044
  SciTegic08162514323D

 54 56  0  0  1  0            999 V2000
   -6.2830    1.1580   -2.3480 F   0  0
   -5.2440    1.6510   -1.6760 C   0  0
   -4.3180    0.7810   -1.0740 C   0  0
   -5.0720    3.0410   -1.5660 C   0  0
   -3.2210    1.3010   -0.3630 C   0  0
   -3.9770    3.5610   -0.8570 C   0  0
   -3.0490    2.6940   -0.2540 C   0  0
   -2.2480    0.3710    0.2700 C   0  0
   -2.0240    3.1940    0.4080 O   0  0
   -1.1860    0.5670   -0.8120 C   0  0
   -2.7850   -1.0600    0.3150 C   0  0
   -1.7950    0.8750    1.6390 C   0  0
   -1.8610    4.6040    0.4220 C   0  0
   -0.0610   -0.4650   -0.7300 C   0  0  1  0  0  0
   -0.5760   -1.7130   -1.1330 O   0  0
    1.0020   -0.0370   -1.7440 C   0  0
    0.5000   -0.6130    0.6860 C   0  0
    1.6250    1.1000   -1.2990 F   0  0
    0.4040    0.2130   -2.9530 F   0  0
    1.9260   -1.0390   -1.8890 F   0  0
    1.7210   -1.4370    0.6990 C   0  0
    2.9920   -0.8140    0.6660 C   0  0
    1.6210   -2.8480    0.7480 C   0  0
    4.1660   -1.6070    0.6820 C   0  0
    2.7870   -3.6480    0.7600 C   0  0
    4.0640   -3.0330    0.7270 C   0  0
    5.4430   -0.9920    0.6500 C   0  0
    5.2400   -3.8240    0.7360 C   0  0
    6.6110   -1.7910    0.6620 C   0  0
    6.5100   -3.2010    0.7030 C   0  0
   -4.4510   -0.2890   -1.1580 H   0  0
   -5.7810    3.7150   -2.0270 H   0  0
   -3.8480    4.6290   -0.7750 H   0  0
   -0.7830    1.5780   -0.7770 H   0  0
   -1.6390    0.5630   -1.8050 H   0  0
   -3.7540   -1.1150    0.8090 H   0  0
   -2.0980   -1.7130    0.8560 H   0  0
   -2.9010   -1.4610   -0.6910 H   0  0
   -1.5510    0.0550    2.3150 H   0  0
   -2.5780    1.4710    2.1080 H   0  0
   -0.9100    1.5040    1.5450 H   0  0
   -1.7270    4.9420   -0.6050 H   0  0
   -2.6970    5.0390    0.9690 H   0  0
   -0.9470    4.8360    0.9710 H   0  0
    0.1760   -2.3220   -1.2130 H   0  0
   -0.2420   -1.0550    1.3500 H   0  0
    0.7150    0.3630    1.1190 H   0  0
    3.0550    0.2640    0.6310 H   0  0
    0.6500   -3.3220    0.7750 H   0  0
    2.6870   -4.7250    0.7970 H   0  0
    5.5410    0.0840    0.6170 H   0  0
    5.1840   -4.9040    0.7700 H   0  0
    7.5820   -1.3200    0.6370 H   0  0
    7.4060   -3.8050    0.7110 H   0  0
  1  2  1  0
  2  3  2  0
  2  4  1  0
  3  5  1  0
  4  6  2  0
  5  7  2  0
  5  8  1  0
  7  9  1  0
  8 10  1  0
  8 11  1  0
  8 12  1  0
  9 13  1  0
 10 14  1  0
 14 15  1  0
 14 16  1  0
 14 17  1  0
 16 18  1  0
 16 19  1  0
 16 20  1  0
 17 21  1  0
 21 22  2  0
 21 23  1  0
 22 24  1  0
 23 25  2  0
 24 26  1  0
 24 27  2  0
 26 28  2  0
 27 29  1  0
 28 30  1  0
  6  7  1  0
 25 26  1  0
 29 30  2  0
  3 31  1  0
  4 32  1  0
  6 33  1  0
 10 34  1  0
 10 35  1  0
 11 36  1  0
 11 37  1  0
 11 38  1  0
 12 39  1  0
 12 40  1  0
 12 41  1  0
 13 42  1  0
 13 43  1  0
 13 44  1  0
 15 45  1  0
 17 46  1  0
 17 47  1  0
 22 48  1  0
 23 49  1  0
 25 50  1  0
 27 51  1  0
 28 52  1  0
 29 53  1  0
 30 54  1  0
M  END
> <Name>
CHEMBL238044

> <IC50 nM>
275

> <Molecule_ChEMBL_ID>
CHEMBL238044

> <Smiles>
COc1ccc(F)cc1C(C)(C)CC(O)(Cc1ccc2ccccc2c1)C(F)(F)F

$$$$
CHEMBL4096557
  SciTegic08162514323D

 73 77  0  0  1  0            999 V2000
   -9.2420   -1.9940    1.0680 F   0  0
   -8.2460   -1.0660    0.8960 C   0  0
   -7.9610   -0.4730    2.0980 F   0  0
   -7.0160   -1.7150    0.3240 C   0  0
   -8.7090   -0.0020   -0.1020 C   0  0
   -6.5690   -1.3690   -0.7440 O   0  0
   -6.4060   -2.7090    1.0370 N   0  0
   -5.2030   -3.3540    0.4920 C   0  0  2  0  0  0
   -4.0410   -2.3630    0.4100 C   0  0  2  0  0  0
   -5.5000   -4.0270   -0.8480 C   0  0
   -2.8970   -3.0200   -0.1190 O   0  0
   -3.7130   -1.7930    1.7420 C   0  0
   -1.7600   -2.3160   -0.2210 C   0  0
   -4.0490   -0.4590    2.0390 C   0  0
   -3.0670   -2.5840    2.7070 C   0  0
   -0.5120   -2.9920   -0.2500 C   0  0
   -1.8090   -0.8980   -0.2990 C   0  0
   -3.7380    0.0800    3.2990 C   0  0
   -2.7560   -2.0450    3.9670 C   0  0
    0.6860   -2.2380   -0.3590 C   0  0
   -0.6110   -0.1480   -0.4060 C   0  0
   -3.0920   -0.7130    4.2640 C   0  0
    0.6110   -0.8590   -0.4320 C   0  0
    1.9370   -2.8260   -0.3950 C   0  0
    1.9180   -0.5040   -0.5230 N   0  0
    2.6680   -1.6600   -0.4980 N   0  0
    2.4160    0.7560   -0.6190 C   0  0
    3.4610    1.0350   -1.5220 C   0  0
    1.8870    1.7850    0.1820 C   0  0
    3.9750    2.3420   -1.6210 C   0  0
    2.4020    3.0900    0.0800 C   0  0
    5.0840    2.6390   -2.5760 C   0  0
    3.4450    3.3690   -0.8180 C   0  0
    4.9300    2.5040   -3.7680 O   0  0
    6.3200    3.0800   -2.0720 N   0  0
    6.5980    3.2340   -0.6560 C   0  0  1  0  0  0
    7.4380    3.4340   -2.9260 C   0  0
    6.7030    1.8950    0.0290 C   0  0
    7.9200    4.0140   -0.6410 C   0  0
    8.6070    3.6050   -1.9550 C   0  0
    6.1520    1.6890    1.0860 O   0  0
    7.4360    0.9080   -0.5700 N   0  0
   -9.6040    0.5160    0.2440 H   0  0
   -8.9360   -0.4530   -1.0660 H   0  0
   -7.9300    0.7440   -0.2560 H   0  0
   -6.7780   -2.9960    1.9200 H   0  0
   -4.9400   -4.2070    1.1170 H   0  0
   -4.3180   -1.5610   -0.2710 H   0  0
   -6.3970   -4.6430   -0.7790 H   0  0
   -5.6390   -3.2830   -1.6310 H   0  0
   -4.6740   -4.6740   -1.1450 H   0  0
   -4.5470    0.1540    1.3030 H   0  0
   -2.8050   -3.6090    2.4860 H   0  0
   -0.4840   -4.0720   -0.1910 H   0  0
   -2.7620   -0.3890   -0.2750 H   0  0
   -3.9980    1.1040    3.5270 H   0  0
   -2.2580   -2.6520    4.7090 H   0  0
   -0.6350    0.9300   -0.4650 H   0  0
   -2.8540   -0.2970    5.2330 H   0  0
    2.2890   -3.8500   -0.3550 H   0  0
    3.8750    0.2520   -2.1430 H   0  0
    1.0840    1.5920    0.8790 H   0  0
    1.9960    3.8790    0.6950 H   0  0
    3.8340    4.3750   -0.8890 H   0  0
    5.8140    3.8130   -0.1860 H   0  0
    7.2170    4.3590   -3.4380 H   0  0
    7.6290    2.6680   -3.6620 H   0  0
    8.5270    3.8110    0.2300 H   0  0
    7.7190    5.0760   -0.6520 H   0  0
    9.1250    2.6660   -1.8260 H   0  0
    9.3260    4.3380   -2.2930 H   0  0
    7.5530    0.0100   -0.1460 H   0  0
    7.8710    1.0720   -1.4550 H   0  0
  1  2  1  0
  2  3  1  0
  2  4  1  0
  2  5  1  0
  4  6  2  0
  4  7  1  0
  7  8  1  0
  8  9  1  0
  8 10  1  0
  9 11  1  0
  9 12  1  0
 11 13  1  0
 12 14  2  0
 12 15  1  0
 13 16  2  0
 13 17  1  0
 14 18  1  0
 15 19  2  0
 16 20  1  0
 17 21  2  0
 18 22  2  0
 20 23  2  0
 20 24  1  0
 23 25  1  0
 24 26  2  0
 25 27  1  0
 27 28  2  0
 27 29  1  0
 28 30  1  0
 29 31  2  0
 30 32  1  0
 30 33  2  0
 32 34  2  0
 32 35  1  0
 35 36  1  0
 35 37  1  0
 36 38  1  0
 36 39  1  0
 37 40  1  0
 38 41  2  0
 38 42  1  0
 19 22  1  0
 21 23  1  0
 25 26  1  0
 31 33  1  0
 39 40  1  0
  5 43  1  0
  5 44  1  0
  5 45  1  0
  7 46  1  0
  8 47  1  0
  9 48  1  0
 10 49  1  0
 10 50  1  0
 10 51  1  0
 14 52  1  0
 15 53  1  0
 16 54  1  0
 17 55  1  0
 18 56  1  0
 19 57  1  0
 21 58  1  0
 22 59  1  0
 24 60  1  0
 28 61  1  0
 29 62  1  0
 31 63  1  0
 33 64  1  0
 36 65  1  0
 37 66  1  0
 37 67  1  0
 39 68  1  0
 39 69  1  0
 40 70  1  0
 40 71  1  0
 42 72  1  0
 42 73  1  0
M  END
> <Name>
CHEMBL4096557

> <IC50 nM>
0.21

> <Molecule_ChEMBL_ID>
CHEMBL4096557

> <Smiles>
C[C@H](NC(=O)C(C)(F)F)[C@H](Oc1ccc2c(cnn2-c2cccc(C(=O)N3CCC[C@@H]3C(N)=O)c2)c1)c1ccccc1

$$$$
CHEMBL506844
  SciTegic08162514323D

 65 69  0  0  1  0            999 V2000
    0.9260   -0.6340    3.7130 O   0  0
    0.5550   -0.1370    2.5250 C   0  0
    2.2630   -1.0920    3.8560 C   0  0
    1.4850   -0.0750    1.4640 C   0  0
   -0.7640    0.3300    2.3350 C   0  0
    2.4660   -1.6050    5.2380 C   0  0
    1.0970    0.4530    0.2070 C   0  0
   -1.1580    0.8500    1.0820 C   0  0
    3.7160   -2.1220    5.6460 C   0  0
    1.4010   -1.5760    6.1560 C   0  0
   -0.2360    0.9090   -0.0010 C   0  0
    2.0770    0.5480   -0.9020 C   0  0
    3.9050   -2.5930    6.9140 N   0  0
    4.8590   -2.1650    4.6960 C   0  0
    1.6100   -2.0640    7.4570 C   0  0
   -0.6050    1.4300   -1.3600 C   0  0  1  0  0  0
    1.4860    0.2000   -2.2840 C   0  0
    2.8770   -2.5680    7.8100 C   0  0
   -0.0350    0.4530   -2.4320 C   0  0  2  0  0  0
   -2.1390    1.5640   -1.5800 C   0  0
    0.0250    2.8230   -1.5250 C   0  0
   -0.4010    0.8750   -3.8720 C   0  0
   -2.5080    1.9890   -3.0130 C   0  0
   -0.2080    3.7230   -0.3100 C   0  0
   -1.9230    1.0380   -4.0780 C   0  0  1  0  0  0
   -2.1310    1.6240   -5.3480 O   0  0
   -2.6210   -0.2800   -4.0780 C   0  0
   -4.0270   -0.3320   -4.0780 C   0  0
   -1.8750   -1.4720   -4.0780 C   0  0
   -4.6850   -1.5740   -4.0780 C   0  0
   -2.5340   -2.7140   -4.0780 C   0  0
   -3.9380   -2.7650   -4.0780 C   0  0
    2.9330   -0.2510    3.6790 H   0  0
    2.4250   -1.8990    3.1420 H   0  0
    2.4930   -0.4320    1.6170 H   0  0
   -1.4740    0.2900    3.1490 H   0  0
   -2.1750    1.1960    0.9760 H   0  0
    0.4350   -1.1860    5.8710 H   0  0
    2.4420    1.5760   -0.9220 H   0  0
    2.9540   -0.0720   -0.7120 H   0  0
    5.7750   -2.5830    5.1150 H   0  0
    5.0820   -1.1560    4.3500 H   0  0
    4.5870   -2.7630    3.8260 H   0  0
    0.8070   -2.0520    8.1800 H   0  0
    2.0390    0.7620   -3.0380 H   0  0
    1.6850   -0.8490   -2.5080 H   0  0
    3.0390   -2.9440    8.8090 H   0  0
   -0.5150   -0.5130   -2.2600 H   0  0
   -2.5620    2.2980   -0.8930 H   0  0
   -2.6340    0.6160   -1.3590 H   0  0
    1.0890    2.7410   -1.7460 H   0  0
   -0.3350    3.3040   -2.4350 H   0  0
    0.1040    1.8180   -4.0920 H   0  0
    0.0080    0.1520   -4.5820 H   0  0
   -2.1340    3.0020   -3.1760 H   0  0
   -3.5940    2.0590   -3.1050 H   0  0
    0.1500    4.7340   -0.5060 H   0  0
   -1.2670    3.7630   -0.0580 H   0  0
    0.3280    3.3420    0.5590 H   0  0
   -3.0770    1.8280   -5.4170 H   0  0
   -4.6060    0.5800   -4.0780 H   0  0
   -0.7950   -1.4400   -4.0780 H   0  0
   -5.7640   -1.6130   -4.0780 H   0  0
   -1.9600   -3.6290   -4.0780 H   0  0
   -4.4440   -3.7200   -4.0780 H   0  0
  1  2  1  0
  1  3  1  0
  2  4  2  0
  2  5  1  0
  3  6  1  0
  4  7  1  0
  5  8  2  0
  6  9  2  0
  6 10  1  0
  7 11  2  0
  7 12  1  0
  9 13  1  0
  9 14  1  0
 10 15  2  0
 11 16  1  0
 12 17  1  0
 13 18  2  0
 16 19  1  0
 16 20  1  0
 16 21  1  0
 19 22  1  0
 20 23  1  0
 21 24  1  0
 22 25  1  0
 25 26  1  0
 25 27  1  0
 27 28  2  0
 27 29  1  0
 28 30  1  0
 29 31  2  0
 30 32  2  0
  8 11  1  0
 15 18  1  0
 17 19  1  0
 23 25  1  0
 31 32  1  0
  3 33  1  0
  3 34  1  0
  4 35  1  0
  5 36  1  0
  8 37  1  0
 10 38  1  0
 12 39  1  0
 12 40  1  0
 14 41  1  0
 14 42  1  0
 14 43  1  0
 15 44  1  0
 17 45  1  0
 17 46  1  0
 18 47  1  0
 19 48  1  0
 20 49  1  0
 20 50  1  0
 21 51  1  0
 21 52  1  0
 22 53  1  0
 22 54  1  0
 23 55  1  0
 23 56  1  0
 24 57  1  0
 24 58  1  0
 24 59  1  0
 26 60  1  0
 28 61  1  0
 29 62  1  0
 30 63  1  0
 31 64  1  0
 32 65  1  0
M  END
> <Name>
CHEMBL506844

> <IC50 nM>
6

> <Molecule_ChEMBL_ID>
CHEMBL506844

> <Smiles>
CC[C@@]12CC[C@](O)(c3ccccc3)C[C@H]1CCc1cc(OCc3cccnc3C)ccc12

$$$$
CHEMBL391943
  SciTegic08162514323D

 54 57  0  0  1  0            999 V2000
   -0.4910    2.7220    2.5710 F   0  0
    0.1190    2.6940    1.3440 C   0  0
   -0.3910    3.6940    0.5570 F   0  0
    1.4690    2.8790    1.5000 F   0  0
   -0.1360    1.3410    0.6780 C   0  0  3  0  0  0
    0.4450    0.3380    1.4810 O   0  0
    0.4730    1.2470   -0.7210 C   0  0
   -1.6510    1.1350    0.6780 C   0  0
    1.9810    1.1350   -0.6560 C   0  0
   -2.0480   -0.3420    0.8040 C   0  0  3  0  0  0
    2.8420    2.2600   -0.5800 N   0  0
    2.7700   -0.0330   -0.6580 C   0  0
   -1.5460   -1.0690   -0.4070 C   0  0
   -3.5810   -0.4400    0.9610 C   0  0
   -1.4100   -0.9070    2.0820 C   0  0
    4.1340    1.7660   -0.5350 C   0  0
    4.0480    0.3970   -0.5850 C   0  0
   -2.4270   -1.4870   -1.4560 C   0  0
   -0.1560   -1.3430   -0.5300 C   0  0
   -4.2990   -0.1790   -0.3620 C   0  0
   -2.3690   -1.7930    2.8780 C   0  0
    5.4090    2.3600   -0.4550 C   0  0
    5.2210   -0.4100   -0.5580 C   0  0
   -1.9030   -2.1670   -2.5850 C   0  0
   -3.8920   -1.2340   -1.3980 C   0  0
    0.3530   -2.0230   -1.6590 C   0  0
    6.5840    1.6400   -0.4230 N   0  0
    6.4840    0.2530   -0.4750 C   0  0
   -0.5210   -2.4350   -2.6860 C   0  0
    1.4050    0.3880    1.3510 H   0  0
    0.1990    2.1160   -1.3190 H   0  0
    0.0670    0.3920   -1.2610 H   0  0
   -2.1210    1.7280    1.4620 H   0  0
   -2.1000    1.5800   -0.2100 H   0  0
    2.5700    3.2160   -0.5630 H   0  0
    2.4200   -1.0560   -0.7080 H   0  0
   -3.9310    0.2610    1.7210 H   0  0
   -3.8600   -1.4330    1.3190 H   0  0
   -0.4920   -1.4460    1.8490 H   0  0
   -1.0210   -0.1030    2.7070 H   0  0
    0.5320   -1.0320    0.2430 H   0  0
   -4.0540    0.8200   -0.7260 H   0  0
   -5.3790   -0.1990   -0.2170 H   0  0
   -1.8480   -2.2870    3.6970 H   0  0
   -3.1920   -1.2040    3.2840 H   0  0
   -2.7970   -2.5670    2.2400 H   0  0
    5.4720    3.4380   -0.4150 H   0  0
    5.1660   -1.4880   -0.5980 H   0  0
   -2.5620   -2.4870   -3.3790 H   0  0
   -4.3850   -2.1770   -1.1600 H   0  0
   -4.2610   -0.9320   -2.3800 H   0  0
    1.4110   -2.2270   -1.7350 H   0  0
    7.3870   -0.3400   -0.4520 H   0  0
   -0.1330   -2.9560   -3.5500 H   0  0
  1  2  1  0
  2  3  1  0
  2  4  1  0
  2  5  1  0
  5  6  1  0
  5  7  1  0
  5  8  1  0
  7  9  1  0
  8 10  1  0
  9 11  1  0
  9 12  2  0
 10 13  1  0
 10 14  1  0
 10 15  1  0
 11 16  1  0
 12 17  1  0
 13 18  2  0
 13 19  1  0
 14 20  1  0
 15 21  1  0
 16 22  1  0
 17 23  1  0
 18 24  1  0
 18 25  1  0
 19 26  2  0
 22 27  2  0
 23 28  2  0
 24 29  2  0
 16 17  2  0
 20 25  1  0
 26 29  1  0
 27 28  1  0
  6 30  1  0
  7 31  1  0
  7 32  1  0
  8 33  1  0
  8 34  1  0
 11 35  1  0
 12 36  1  0
 14 37  1  0
 14 38  1  0
 15 39  1  0
 15 40  1  0
 19 41  1  0
 20 42  1  0
 20 43  1  0
 21 44  1  0
 21 45  1  0
 21 46  1  0
 22 47  1  0
 23 48  1  0
 24 49  1  0
 25 50  1  0
 25 51  1  0
 26 52  1  0
 28 53  1  0
 29 54  1  0
M  END
> <Name>
CHEMBL391943

> <IC50 nM>
28.18

> <Molecule_ChEMBL_ID>
CHEMBL391943

> <Smiles>
CCC1(CC(O)(Cc2cc3ccncc3[nH]2)C(F)(F)F)CCCc2ccccc21

$$$$
CHEMBL3578271
  SciTegic08162514323D

 52 56  0  0  1  0            999 V2000
   -8.6410   -0.1170    0.8460 Cl  0  0
   -7.0650    0.4000    0.4120 C   0  0
   -5.9830   -0.5180    0.4430 C   0  0
   -6.8420    1.7480    0.0200 C   0  0
   -4.6920   -0.0660    0.0820 C   0  0
   -5.5390    2.1800   -0.3380 C   0  0
   -3.5370   -0.7540    0.0390 N   0  0
   -4.4750    1.2460   -0.2990 C   0  0
   -2.6130    0.1840   -0.3790 C   0  0
   -3.1740    1.4280   -0.5900 N   0  0
   -1.1450   -0.1230   -0.5820 C   0  0  1  0  0  0
   -0.4610    1.0820   -0.9650 O   0  0
   -0.4690   -0.5550    0.7030 C   0  0
   -0.9690   -1.1600   -1.6850 C   0  0
    0.4860    1.3300   -0.0580 C   0  0
   -0.7110   -1.5180    1.3950 O   0  0
    0.5250    0.3850    0.9590 N   0  0
    0.4670   -1.4040   -1.9820 C   0  0
    1.2480    2.2700   -0.0860 O   0  0
    1.4410    0.3770    2.0960 C   0  0  1  0  0  0
    1.1480   -2.4550   -1.3400 C   0  0
    1.1450   -0.5880   -2.9040 C   0  0
    2.8540    0.2150    1.6580 C   0  0
    1.2680    1.6040    2.9900 C   0  0
    2.5060   -2.6860   -1.6210 C   0  0
    2.5020   -0.8200   -3.1850 C   0  0
    3.4060   -1.0720    1.5290 C   0  0
    3.6370    1.3480    1.3730 C   0  0
    3.1840   -1.8690   -2.5450 C   0  0
    4.7420   -1.2270    1.1150 C   0  0
    4.9730    1.1930    0.9610 C   0  0
    5.5250   -0.0940    0.8320 C   0  0
    6.7890   -0.2380    0.4400 F   0  0
   -6.1350   -1.5470    0.7380 H   0  0
   -7.6580    2.4550   -0.0100 H   0  0
   -5.3650    3.2030   -0.6350 H   0  0
   -2.7210    2.2600   -0.8910 H   0  0
   -1.4810   -0.8460   -2.5940 H   0  0
   -1.4490   -2.1000   -1.4100 H   0  0
    1.3030   -0.5410    2.6680 H   0  0
    0.6350   -3.0860   -0.6310 H   0  0
    0.6250    0.2190   -3.4020 H   0  0
    0.2930    1.5900    3.4790 H   0  0
    2.0470    1.6390    3.7520 H   0  0
    1.3340    2.5210    2.4040 H   0  0
    3.0310   -3.4920   -1.1290 H   0  0
    3.0210   -0.1930   -3.8940 H   0  0
    2.8110   -1.9450    1.7460 H   0  0
    3.2190    2.3380    1.4710 H   0  0
    4.2270   -2.0470   -2.7600 H   0  0
    5.1620   -2.2170    1.0180 H   0  0
    5.5700    2.0660    0.7420 H   0  0
  1  2  1  0
  2  3  2  0
  2  4  1  0
  3  5  1  0
  4  6  2  0
  5  7  1  0
  5  8  2  0
  7  9  2  0
  8 10  1  0
 11  9  1  0
 11 12  1  0
 11 13  1  0
 11 14  1  0
 12 15  1  0
 13 16  2  0
 13 17  1  0
 14 18  1  0
 15 19  2  0
 17 20  1  0
 18 21  2  0
 18 22  1  0
 20 23  1  0
 20 24  1  0
 21 25  1  0
 22 26  2  0
 23 27  2  0
 23 28  1  0
 25 29  2  0
 27 30  1  0
 28 31  2  0
 30 32  2  0
 32 33  1  0
  6  8  1  0
  9 10  1  0
 15 17  1  0
 26 29  1  0
 31 32  1  0
  3 34  1  0
  4 35  1  0
  6 36  1  0
 10 37  1  0
 14 38  1  0
 14 39  1  0
 20 40  1  0
 21 41  1  0
 22 42  1  0
 24 43  1  0
 24 44  1  0
 24 45  1  0
 25 46  1  0
 26 47  1  0
 27 48  1  0
 28 49  1  0
 29 50  1  0
 30 51  1  0
 31 52  1  0
M  END
> <Name>
CHEMBL3578271

> <IC50 nM>
3800

> <Molecule_ChEMBL_ID>
CHEMBL3578271

> <Smiles>
C[C@H](c1ccc(F)cc1)N1C(=O)O[C@](Cc2ccccc2)(c2nc3cc(Cl)ccc3[nH]2)C1=O

$$$$
CHEMBL3576885
  SciTegic08162514323D

 59 64  0  0  1  0            999 V2000
    7.3870   -1.7750    1.3440 F   0  0
    6.1540   -1.3570    1.6230 C   0  0
    5.2250   -2.2420    2.1930 C   0  0
    5.7830   -0.0290    1.3500 C   0  0
    3.9240   -1.8010    2.4900 C   0  0
    4.4820    0.4120    1.6450 C   0  0
    3.5510   -0.4730    2.2150 C   0  0
    2.1740   -0.0060    2.5290 C   0  0  2  0  0  0
    1.4590    0.4040    1.3240 N   0  0
    2.1800    1.0840    3.6000 C   0  0
    1.3960    1.6910    0.8030 C   0  0
    0.7170   -0.4280    0.4900 C   0  0
    1.9590    2.6210    1.3340 O   0  0
    0.6640    1.7680   -0.3110 O   0  0
    0.5590   -1.6150    0.6520 O   0  0
    0.1760    0.4510   -0.6190 C   0  0  2  0  0  0
   -1.3380    0.4780   -0.6390 C   0  0
    0.7150    0.0310   -1.9800 C   0  0
   -2.1210   -0.6560   -0.5570 N   0  0
   -2.0840    1.6370   -0.7400 N   0  0
    2.1950    0.1350   -2.0370 C   0  0
   -3.3770   -0.1820   -0.6070 C   0  0
   -3.3580    1.2010   -0.7190 C   0  0
    2.8030    1.3280   -2.4670 C   0  0
    2.9920   -0.9630   -1.6640 C   0  0
   -4.5980   -0.8980   -0.5640 C   0  0
   -4.5610    1.9530   -0.7910 C   0  0
    4.2050    1.4260   -2.5210 C   0  0
    4.3950   -0.8650   -1.7190 C   0  0
   -5.7890   -0.1410   -0.6370 C   0  0
   -5.8050    1.2700   -0.7500 C   0  0
    5.0000    0.3280   -2.1460 C   0  0
   -7.0840   -0.8570   -0.5940 C   0  0
   -7.3420   -2.0370   -0.0140 N   0  0
   -8.2460   -0.3460   -1.1930 C   0  0
   -8.6370   -2.3070   -0.2190 N   0  0
   -9.2420   -1.3160   -0.9300 C   0  0
    5.5060   -3.2640    2.4060 H   0  0
    6.4940    0.6540    0.9100 H   0  0
    3.2130   -2.4860    2.9280 H   0  0
    4.2030    1.4340    1.4320 H   0  0
    1.7340   -0.9260    2.9180 H   0  0
    1.1850    1.5160    3.7170 H   0  0
    2.5080    0.6820    4.5590 H   0  0
    2.8630    1.8910    3.3260 H   0  0
    0.2770    0.6410   -2.7710 H   0  0
    0.4120   -0.9880   -2.2170 H   0  0
   -1.7540    2.5720   -0.8140 H   0  0
    2.1970    2.1760   -2.7560 H   0  0
    2.5330   -1.8830   -1.3340 H   0  0
   -4.6150   -1.9750   -0.4780 H   0  0
   -4.5350    3.0290   -0.8770 H   0  0
    4.6700    2.3420   -2.8500 H   0  0
    5.0060   -1.7090   -1.4320 H   0  0
   -6.7330    1.8180   -0.8030 H   0  0
    6.0760    0.4020   -2.1890 H   0  0
   -8.3630    0.5820   -1.7380 H   0  0
   -9.1040   -3.1210    0.1060 H   0  0
  -10.2850   -1.3090   -1.2170 H   0  0
  1  2  1  0
  2  3  2  0
  2  4  1  0
  3  5  1  0
  4  6  2  0
  5  7  2  0
  7  8  1  0
  8  9  1  0
  8 10  1  0
  9 11  1  0
  9 12  1  0
 11 13  2  0
 11 14  1  0
 12 15  2  0
 12 16  1  0
 16 17  1  0
 16 18  1  0
 17 19  2  0
 17 20  1  0
 18 21  1  0
 19 22  1  0
 20 23  1  0
 21 24  2  0
 21 25  1  0
 22 26  1  0
 23 27  1  0
 24 28  1  0
 25 29  2  0
 26 30  2  0
 27 31  2  0
 28 32  2  0
 30 33  1  0
 33 34  2  0
 33 35  1  0
 34 36  1  0
 35 37  2  0
  6  7  1  0
 14 16  1  0
 22 23  2  0
 29 32  1  0
 30 31  1  0
 36 37  1  0
  3 38  1  0
  4 39  1  0
  5 40  1  0
  6 41  1  0
  8 42  1  0
 10 43  1  0
 10 44  1  0
 10 45  1  0
 18 46  1  0
 18 47  1  0
 20 48  1  0
 24 49  1  0
 25 50  1  0
 26 51  1  0
 27 52  1  0
 28 53  1  0
 29 54  1  0
 31 55  1  0
 32 56  1  0
 35 57  1  0
 36 58  1  0
 37 59  1  0
M  END
> <Name>
CHEMBL3576885

> <IC50 nM>
3000

> <Molecule_ChEMBL_ID>
CHEMBL3576885

> <Smiles>
C[C@H](c1ccc(F)cc1)N1C(=O)O[C@](Cc2ccccc2)(c2nc3cc(-c4cc[nH]n4)ccc3[nH]2)C1=O

$$$$
CHEMBL3578295
  SciTegic08162514323D

 60 64  0  0  1  0            999 V2000
   -3.4390   -2.1740   -0.9960 S   0  0
   -3.1480   -1.3070   -2.1250 O   0  0
   -2.2500   -2.5980   -0.2770 O   0  0
   -4.3610   -1.3340    0.0370 N   0  0
   -4.3030   -3.6230   -1.5900 C   0  0
   -4.4430    0.0060   -0.0700 C   0  0
   -3.1890    0.6850   -0.1090 C   0  0
   -5.6540    0.7360   -0.1410 C   0  0
   -1.9180    0.2230   -0.0590 N   0  0
   -3.1680    2.0680   -0.2210 C   0  0
   -5.6110    2.1480   -0.2520 C   0  0
   -1.1430    1.3590   -0.1410 C   0  0
   -1.8960    2.5100   -0.2440 N   0  0
   -4.3650    2.8240   -0.2930 C   0  0
    0.3750    1.3420   -0.1230 C   0  0  1  0  0  0
    0.8440    2.3420    0.7950 O   0  0
    0.9240    0.0370    0.4180 C   0  0
    0.9240    1.6500   -1.5100 C   0  0
    1.5720    1.7380    1.7360 C   0  0
    0.7810   -1.0800   -0.0230 O   0  0
    1.6520    0.3610    1.5610 N   0  0
    0.6330    0.5510   -2.4690 C   0  0
    2.1210    2.2930    2.6600 O   0  0
    2.3690   -0.5800    2.4160 C   0  0  1  0  0  0
   -0.5940    0.5210   -3.1540 C   0  0
    1.5880   -0.4570   -2.6910 C   0  0
    3.8200   -0.2720    2.4730 C   0  0
    1.7580   -0.6720    3.8140 C   0  0
   -0.8670   -0.5180   -4.0610 C   0  0
    1.3130   -1.4960   -3.6000 C   0  0
    4.7030   -0.8650    1.5530 C   0  0
    4.3150    0.6170    3.4450 C   0  0
    0.0860   -1.5270   -4.2830 C   0  0
    6.0780   -0.5720    1.6050 C   0  0
    5.6900    0.9080    3.4980 C   0  0
    6.5700    0.3140    2.5780 C   0  0
    7.8710    0.5920    2.6290 F   0  0
   -4.8690   -1.8110    0.7560 H   0  0
   -3.7300   -4.2310   -2.2910 H   0  0
   -5.2250   -3.3200   -2.0860 H   0  0
   -4.5720   -4.2580   -0.7440 H   0  0
   -6.6110    0.2300   -0.1110 H   0  0
   -6.5310    2.7130   -0.3070 H   0  0
   -1.5700    3.4470   -0.3160 H   0  0
   -4.3380    3.9000   -0.3790 H   0  0
    1.9980    1.8220   -1.4690 H   0  0
    0.5080    2.5840   -1.8910 H   0  0
    2.3910   -1.5610    1.9390 H   0  0
   -1.3320    1.2930   -2.9860 H   0  0
    2.5330   -0.4410   -2.1700 H   0  0
    0.7730   -1.1410    3.7750 H   0  0
    2.4000   -1.2520    4.4790 H   0  0
    1.6390    0.3200    4.2500 H   0  0
   -1.8110   -0.5410   -4.5860 H   0  0
    2.0470   -2.2720   -3.7700 H   0  0
    4.3320   -1.5470    0.8030 H   0  0
    3.6430    1.0760    4.1540 H   0  0
   -0.1250   -2.3240   -4.9810 H   0  0
    6.7520   -1.0310    0.8960 H   0  0
    6.0630    1.5920    4.2480 H   0  0
  1  2  2  0
  1  3  2  0
  1  4  1  0
  1  5  1  0
  4  6  1  0
  6  7  2  0
  6  8  1  0
  7  9  1  0
  7 10  1  0
  8 11  2  0
  9 12  2  0
 10 13  1  0
 10 14  2  0
 15 12  1  0
 15 16  1  0
 15 17  1  0
 15 18  1  0
 16 19  1  0
 17 20  2  0
 17 21  1  0
 18 22  1  0
 19 23  2  0
 21 24  1  0
 22 25  2  0
 22 26  1  0
 24 27  1  0
 24 28  1  0
 25 29  1  0
 26 30  2  0
 27 31  2  0
 27 32  1  0
 29 33  2  0
 31 34  1  0
 32 35  2  0
 34 36  2  0
 36 37  1  0
 11 14  1  0
 12 13  1  0
 19 21  1  0
 30 33  1  0
 35 36  1  0
  4 38  1  0
  5 39  1  0
  5 40  1  0
  5 41  1  0
  8 42  1  0
 11 43  1  0
 13 44  1  0
 14 45  1  0
 18 46  1  0
 18 47  1  0
 24 48  1  0
 25 49  1  0
 26 50  1  0
 28 51  1  0
 28 52  1  0
 28 53  1  0
 29 54  1  0
 30 55  1  0
 31 56  1  0
 32 57  1  0
 33 58  1  0
 34 59  1  0
 35 60  1  0
M  END
> <Name>
CHEMBL3578295

> <IC50 nM>
17000

> <Molecule_ChEMBL_ID>
CHEMBL3578295

> <Smiles>
C[C@H](c1ccc(F)cc1)N1C(=O)O[C@](Cc2ccccc2)(c2nc3c(NS(C)(=O)=O)cccc3[nH]2)C1=O

$$$$
CHEMBL4082878
  SciTegic08162514323D

 53 55  0  0  1  0            999 V2000
   -2.4510   -6.0230   -2.8650 F   0  0
   -1.6370   -5.0530   -2.4550 C   0  0
   -2.0240   -4.2030   -1.4010 C   0  0
   -0.3910   -4.8810   -3.0800 C   0  0
   -3.1950   -4.3670   -0.8170 O   0  0
   -1.1540   -3.1780   -0.9770 C   0  0
    0.4750   -3.8590   -2.6540 C   0  0
    0.0940   -3.0080   -1.6040 C   0  0
   -1.5470   -2.2710    0.1350 C   0  0
   -0.4010   -1.3440    0.5370 C   0  0
   -2.1190   -3.0510    1.3200 C   0  0
   -2.6270   -1.5590   -0.6780 C   0  0
   -0.8360   -0.2600    1.5230 C   0  0  1  0  0  0
   -2.1330   -0.5740    1.9800 O   0  0
    0.1230   -0.3400    2.7110 C   0  0
   -0.8770    1.1310    0.8890 C   0  0
   -0.0330   -1.5450    3.3440 F   0  0
   -0.1520    0.6780    3.5900 F   0  0
    1.4140   -0.2210    2.2660 F   0  0
    0.4530    1.5310    0.4100 N   0  0
    0.7420    2.8320    0.2360 C   0  0
    2.0820    3.3050    0.1230 C   0  0
   -0.3180    3.7720    0.1640 C   0  0
    2.3480    4.6880   -0.0590 C   0  0
    3.2580    2.3830    0.1890 C   0  0
   -0.0550    5.1510   -0.0200 C   0  0
    3.7680    5.1620   -0.1720 C   0  0
    1.2750    5.6100   -0.1310 C   0  0
    4.5140    2.8730    0.0800 C   0  0
    4.1090    6.3130   -0.3280 O   0  0
    4.7770    4.2170   -0.0960 N   0  0
   -0.0940   -5.5330   -3.8890 H   0  0
   -3.5860   -3.6330   -0.3260 H   0  0
    1.4340   -3.7270   -3.1350 H   0  0
    0.7620   -2.2250   -1.2790 H   0  0
    0.0620   -0.9000   -0.3440 H   0  0
    0.4350   -1.9160    0.9390 H   0  0
   -2.1190   -4.1250    1.1390 H   0  0
   -3.1470   -2.7460    1.5210 H   0  0
   -1.5350   -2.8630    2.2230 H   0  0
   -2.9770   -2.1910   -1.4940 H   0  0
   -3.4750   -1.2930   -0.0450 H   0  0
   -2.2360   -0.6390   -1.1130 H   0  0
   -2.7420    0.0610    1.5720 H   0  0
   -1.2380    1.8710    1.6050 H   0  0
   -1.5820    1.1560    0.0570 H   0  0
    1.1420    0.8360    0.2130 H   0  0
   -1.3500    3.4510    0.2460 H   0  0
    3.1190    1.3200    0.3260 H   0  0
   -0.8730    5.8520   -0.0740 H   0  0
    1.4650    6.6640   -0.2700 H   0  0
    5.3240    2.1600    0.1370 H   0  0
    5.7320    4.5080   -0.1680 H   0  0
  1  2  1  0
  2  3  2  0
  2  4  1  0
  3  5  1  0
  3  6  1  0
  4  7  2  0
  6  8  2  0
  6  9  1  0
  9 10  1  0
  9 11  1  0
  9 12  1  0
 10 13  1  0
 13 14  1  0
 13 15  1  0
 13 16  1  0
 15 17  1  0
 15 18  1  0
 15 19  1  0
 16 20  1  0
 20 21  1  0
 21 22  2  0
 21 23  1  0
 22 24  1  0
 22 25  1  0
 23 26  2  0
 24 27  1  0
 24 28  2  0
 25 29  2  0
 27 30  2  0
 27 31  1  0
  7  8  1  0
 26 28  1  0
 29 31  1  0
  4 32  1  0
  5 33  1  0
  7 34  1  0
  8 35  1  0
 10 36  1  0
 10 37  1  0
 11 38  1  0
 11 39  1  0
 11 40  1  0
 12 41  1  0
 12 42  1  0
 12 43  1  0
 14 44  1  0
 16 45  1  0
 16 46  1  0
 20 47  1  0
 23 48  1  0
 25 49  1  0
 26 50  1  0
 28 51  1  0
 29 52  1  0
 31 53  1  0
M  END
> <Name>
CHEMBL4082878

> <IC50 nM>
3.98

> <Molecule_ChEMBL_ID>
CHEMBL4082878

> <Smiles>
CC(C)(CC(O)(CNc1cccc2c(=O)[nH]ccc12)C(F)(F)F)c1cccc(F)c1O

$$$$
CHEMBL363327
  SciTegic08162514323D

 60 62  0  0  0  0            999 V2000
   -3.3610   -4.0370   -2.4160 S   0  0
   -3.0980   -5.2830   -3.1130 O   0  0
   -3.9000   -4.2330   -1.0820 O   0  0
   -1.9490   -3.2580   -2.2620 N   0  0
   -4.5220   -3.0740   -3.3750 C   0  0
   -1.7750   -2.3480   -1.2500 C   0  0
   -0.4820   -1.9810   -0.8050 C   0  0
   -2.9120   -1.7740   -0.6500 C   0  0
   -0.3440   -1.0370    0.2400 C   0  0
    0.7300   -2.5840   -1.4370 C   0  0
   -2.7700   -0.8400    0.3870 C   0  0
    0.8930   -0.6560    0.6990 N   0  0
   -1.4900   -0.4710    0.8320 C   0  0
    1.8070    0.1230   -0.1480 C   0  0
    1.3200   -1.0250    2.0550 C   0  0
    1.4790    1.5720   -0.1190 C   0  0
    2.1090   -2.2850    2.0550 C   0  0
    0.8690    2.1800   -1.2320 C   0  0
    1.7770    2.3400    1.0200 C   0  0
    1.4510   -3.5290    2.0550 C   0  0
    3.5160   -2.2360    2.0550 C   0  0
    0.5590    3.5510   -1.2050 C   0  0
    1.4670    3.7110    1.0490 C   0  0
    2.1990   -4.7210    2.0550 C   0  0
    4.2620   -3.4280    2.0550 C   0  0
    0.8570    4.3180   -0.0640 C   0  0
    3.6040   -4.6680    2.0550 C   0  0
    0.5290    5.7680   -0.0350 C   0  0
   -0.8830    6.0140    0.4960 C   0  0
   -1.2870    7.4610    0.4010 C   0  0
   -0.5060    8.3030    0.0260 O   0  0
   -2.5430    7.7230    0.7560 O   0  0
   -1.2030   -3.4420   -2.9040 H   0  0
   -5.5550   -3.4140   -3.3030 H   0  0
   -4.2360   -3.1000   -4.4260 H   0  0
   -4.4900   -2.0350   -3.0450 H   0  0
   -3.9080   -2.0430   -0.9760 H   0  0
    0.9340   -2.0860   -2.3850 H   0  0
    1.5700   -2.5270   -0.7440 H   0  0
    0.5450   -3.6390   -1.6480 H   0  0
   -3.6450   -0.4020    0.8440 H   0  0
   -1.4040    0.2500    1.6330 H   0  0
    1.7440   -0.2420   -1.1740 H   0  0
    2.8300   -0.0250    0.1970 H   0  0
    0.4410   -1.1490    2.6880 H   0  0
    1.9220   -0.2210    2.4750 H   0  0
    0.6370    1.5960   -2.1110 H   0  0
    2.2460    1.8810    1.8790 H   0  0
    0.3730   -3.5740    2.0550 H   0  0
    4.0270   -1.2850    2.0550 H   0  0
    0.0900    4.0100   -2.0620 H   0  0
    1.6990    4.2950    1.9280 H   0  0
    1.6930   -5.6740    2.0550 H   0  0
    5.3400   -3.3870    2.0550 H   0  0
    4.1780   -5.5840    2.0550 H   0  0
    0.6450    6.1860   -1.0350 H   0  0
    1.2660    6.2950    0.5710 H   0  0
   -0.8710    5.7010    1.5390 H   0  0
   -1.6070    5.3930   -0.0310 H   0  0
   -2.8650    8.6310    0.7170 H   0  0
  1  2  2  0
  1  3  2  0
  1  4  1  0
  1  5  1  0
  4  6  1  0
  6  7  2  0
  6  8  1  0
  7  9  1  0
  7 10  1  0
  8 11  2  0
  9 12  1  0
  9 13  2  0
 12 14  1  0
 12 15  1  0
 14 16  1  0
 15 17  1  0
 16 18  2  0
 16 19  1  0
 17 20  2  0
 17 21  1  0
 18 22  1  0
 19 23  2  0
 20 24  1  0
 21 25  2  0
 22 26  2  0
 24 27  2  0
 26 28  1  0
 28 29  1  0
 29 30  1  0
 30 31  2  0
 30 32  1  0
 11 13  1  0
 23 26  1  0
 25 27  1  0
  4 33  1  0
  5 34  1  0
  5 35  1  0
  5 36  1  0
  8 37  1  0
 10 38  1  0
 10 39  1  0
 10 40  1  0
 11 41  1  0
 13 42  1  0
 14 43  1  0
 14 44  1  0
 15 45  1  0
 15 46  1  0
 18 47  1  0
 19 48  1  0
 20 49  1  0
 21 50  1  0
 22 51  1  0
 23 52  1  0
 24 53  1  0
 25 54  1  0
 27 55  1  0
 28 56  1  0
 28 57  1  0
 29 58  1  0
 29 59  1  0
 32 60  1  0
M  END
> <Name>
CHEMBL363327

> <IC50 nM>
1000

> <Molecule_ChEMBL_ID>
CHEMBL363327

> <Smiles>
Cc1c(NS(C)(=O)=O)cccc1N(Cc1ccccc1)Cc1ccc(CCC(=O)O)cc1

$$$$
CHEMBL553440
  SciTegic08162514323D

176184  0  0  1  0            999 V2000
   -0.5630    3.1190   -2.7340 S   0  0
   -2.0410    3.1040   -3.5330 C   0  0
   -3.0350    2.2010   -3.2770 N   0  0
   -2.3890    3.9900   -4.5120 N   0  0
   -2.8320    1.1780   -2.2400 C   0  0
   -1.4240    5.0180   -4.9300 C   0  0
   -3.7230   -0.0390   -2.4920 C   0  0
   -0.6230    4.5530   -6.1470 C   0  0
   -3.4490   -1.3160   -1.2300 S   0  0
    0.3030    5.6410   -6.6930 C   0  0
   -4.5510   -2.5980   -1.8930 C   0  0
    1.0780    5.1330   -7.8130 N   0  0
   -5.9830   -2.2210   -1.6130 C   0  0
    0.2700    5.1020   -9.0200 C   0  0
    2.2660    5.9450   -8.0200 C   0  0
   -6.2540   -1.2150   -1.0020 O   0  0
   -7.0680   -3.1390   -2.1210 C   0  0  2  0  0  0
    0.7870    4.0330   -9.9830 C   0  0
   -7.2010   -2.8870   -3.5140 O   0  0
   -8.4360   -2.9730   -1.4100 C   0  0  2  0  0  0
   -6.7740   -4.6390   -1.8750 C   0  0  1  0  0  0
    0.6660    2.6190   -9.4160 C   0  0
   -9.1780   -4.2270   -1.9100 C   0  0  1  0  0  0
   -9.2790   -1.7250   -1.7400 C   0  0
   -8.1660   -3.0510    0.1040 C   0  0
   -8.1390   -5.3300   -1.7050 C   0  0
   -5.9100   -5.3280   -2.9340 C   0  0
    1.8010    2.3050   -8.5350 N   0  0
  -10.5430   -4.3770   -1.2130 C   0  0  1  0  0  0
  -10.7330   -1.8160   -1.2010 C   0  0  1  0  0  0
    1.6970    1.2700   -7.6520 C   0  0
  -11.4320   -3.1500   -1.5940 C   0  0  1  0  0  0
  -11.2310   -5.7480   -1.4370 C   0  0
  -10.7290   -1.6450    0.2030 O   0  0
    0.6820    0.6150   -7.5940 O   0  0
    2.8670    0.9630   -6.7580 C   0  0
  -11.5260   -3.0780   -2.9730 F   0  0
  -12.8890   -3.3670   -1.0680 C   0  0  2  0  0  0
  -12.5530   -5.6990   -2.2170 C   0  0
    2.5570   -0.1430   -5.7460 C   0  0
  -13.4830   -4.5740   -1.8030 C   0  0
  -13.7780   -2.1330   -1.1930 C   0  0
  -12.8910   -3.7130    0.4280 C   0  0
    3.7210   -0.4180   -4.8930 N   0  0
  -14.7970   -4.6470   -2.1040 C   0  0
  -15.0800   -2.2150   -1.5290 C   0  0
    4.6620   -1.3160   -5.3130 C   0  0
  -15.6900   -3.5060   -1.8690 C   0  0
    4.5390   -1.8770   -6.3750 O   0  0
    5.8180   -1.5920   -4.4690 C   0  0
  -16.8890   -3.6210   -1.9690 O   0  0
    6.9630   -2.2190   -4.8710 N   0  0
    5.9220   -1.2520   -3.1150 C   0  0
    7.7870   -2.2790   -3.7910 C   0  0
    7.2580   -2.7340   -6.2170 C   0  0
    7.1700   -1.6890   -2.6860 C   0  0
    7.7310   -1.5550   -1.3340 N   0  0
    8.9810   -2.0350   -1.0610 C   0  0
    9.6290   -2.5720   -1.9280 O   0  0
    9.5260   -1.8970    0.2830 C   0  0
   10.7350   -2.3790    0.7010 N   0  0
    8.8890   -1.2460    1.3440 C   0  0
   10.8650   -2.0410    2.0140 C   0  0
   11.7130   -3.1250   -0.1050 C   0  0
    9.7380   -1.3380    2.4400 C   0  0
    9.4960   -0.7990    3.7870 N   0  0
   10.4300   -0.9690    4.7700 C   0  0
   11.4590   -1.5610    4.5370 O   0  0
   10.1820   -0.4320    6.1000 C   0  0
   11.0020   -0.5760    7.1820 N   0  0
    9.0550    0.3160    6.4630 C   0  0
   10.4100    0.0700    8.2230 C   0  0
   12.2870   -1.2950    7.2230 C   0  0
    9.2030    0.6330    7.8110 C   0  0
    8.2680    1.4120    8.6370 N   0  0
    7.2010    2.0370    8.0570 C   0  0
    7.0220    1.9570    6.8630 O   0  0
    6.2810    2.8050    8.8830 C   0  0
    5.2110    3.5220    8.4260 N   0  0
    6.3590    2.9200   10.2760 C   0  0
    4.6130    4.0860    9.5120 C   0  0
    4.7770    3.6600    7.0270 C   0  0
    5.3030    3.7320   10.6720 C   0  0
    4.9770    4.1410   12.0470 N   0  0
    3.9000    4.9470   12.2830 C   0  0
    3.2110    5.3300   11.3650 O   0  0
    3.5840    5.3440   13.6490 C   0  0
    2.3240    5.3930   14.1680 N   0  0
    4.4980    5.7190   14.5900 N   0  0
    2.4490    5.8030   15.4480 C   0  0
    3.7990    6.0060   15.7090 C   0  0
    5.9590    5.8010   14.4300 C   0  0
   -3.8930    2.2380   -3.7910 H   0  0
   -3.2930    3.9340   -4.9360 H   0  0
   -1.7810    0.8910   -2.2230 H   0  0
   -3.0410    1.6110   -1.2640 H   0  0
   -0.7600    5.2460   -4.0960 H   0  0
   -1.9570    5.9410   -5.1500 H   0  0
   -4.7750    0.2460   -2.4980 H   0  0
   -3.5310   -0.4590   -3.4800 H   0  0
   -1.2870    4.1840   -6.9280 H   0  0
   -0.0590    3.6480   -5.9160 H   0  0
    0.9790    5.9980   -5.9160 H   0  0
   -0.2710    6.5100   -7.0140 H   0  0
   -4.3950   -2.6910   -2.9670 H   0  0
   -4.3220   -3.5530   -1.4200 H   0  0
    0.2790    6.0840   -9.4900 H   0  0
   -0.7710    4.9080   -8.7540 H   0  0
    2.9000    6.0410   -7.1390 H   0  0
    1.9710    6.9470   -8.3280 H   0  0
    2.8670    5.5140   -8.8180 H   0  0
    1.8140    4.2440  -10.2760 H   0  0
    0.2830    4.1070  -10.9470 H   0  0
   -6.3300   -3.0330   -3.9140 H   0  0
   -6.2500   -4.7360   -0.9320 H   0  0
    0.6230    1.8830  -10.2210 H   0  0
   -0.2640    2.5040   -8.8580 H   0  0
   -9.3520   -4.1540   -2.9750 H   0  0
   -9.3340   -1.5980   -2.8220 H   0  0
   -8.7850   -0.8240   -1.3690 H   0  0
   -9.0880   -3.1840    0.6720 H   0  0
   -7.6860   -2.1390    0.4570 H   0  0
   -7.5080   -3.8870    0.3340 H   0  0
   -8.2230   -5.7520   -0.7130 H   0  0
   -8.2890   -6.1390   -2.4080 H   0  0
   -5.7230   -6.3670   -2.6620 H   0  0
   -6.3990   -5.2990   -3.9080 H   0  0
   -4.9450   -4.8300   -3.0290 H   0  0
    2.6410    2.8460   -8.5820 H   0  0
  -10.3600   -4.3280   -0.1410 H   0  0
  -11.2850   -0.9670   -1.6040 H   0  0
  -11.4420   -6.1860   -0.4610 H   0  0
  -10.5570   -6.4510   -1.9220 H   0  0
  -11.4320   -1.0120    0.4160 H   0  0
    3.7050    0.5980   -7.3540 H   0  0
    3.1930    1.8690   -6.2480 H   0  0
  -13.0630   -6.6580   -2.1210 H   0  0
  -12.3320   -5.5820   -3.2790 H   0  0
    2.2620   -1.0590   -6.2580 H   0  0
    1.7110    0.1370   -5.1190 H   0  0
  -13.3670   -1.1520   -1.0020 H   0  0
  -13.8850   -3.9940    0.7770 H   0  0
  -12.5550   -2.8630    1.0200 H   0  0
  -12.2190   -4.5470    0.6310 H   0  0
    3.8240    0.0450   -4.0140 H   0  0
  -15.2010   -5.5490   -2.5410 H   0  0
  -15.6820   -1.3180   -1.5510 H   0  0
    5.1720   -0.7480   -2.5180 H   0  0
    8.7720   -2.7290   -3.8240 H   0  0
    7.1800   -3.8180   -6.3110 H   0  0
    8.2700   -2.4470   -6.5020 H   0  0
    6.5700   -2.2890   -6.9360 H   0  0
    7.1950   -1.1090   -0.6150 H   0  0
    7.9180   -0.7640    1.3150 H   0  0
   11.7350   -2.2990    2.6060 H   0  0
   12.2640   -2.5120   -0.8180 H   0  0
   11.2010   -3.9080   -0.6640 H   0  0
   12.4380   -3.6040    0.5550 H   0  0
    8.6470   -0.3090    3.9810 H   0  0
    8.2310    0.5940    5.8200 H   0  0
   10.8480    0.1170    9.2130 H   0  0
   13.1100   -0.7700    6.7350 H   0  0
   12.1760   -2.2640    6.7380 H   0  0
   12.5720   -1.4690    8.2600 H   0  0
    8.4160    1.4790    9.6230 H   0  0
    7.1020    2.4650   10.9180 H   0  0
    3.7340    4.7130    9.4420 H   0  0
    4.2930    2.7750    6.6170 H   0  0
    5.6410    3.8890    6.4010 H   0  0
    4.0760    4.4920    6.9450 H   0  0
    5.5450    3.8240   12.8070 H   0  0
    1.6130    5.9380   16.1190 H   0  0
    4.2480    6.3360   16.6370 H   0  0
    6.2830    6.0980   13.4320 H   0  0
    6.4020    4.8280   14.6490 H   0  0
    6.3630    6.5200   15.1410 H   0  0
  1  2  2  0
  2  3  1  0
  2  4  1  0
  3  5  1  0
  4  6  1  0
  5  7  1  0
  6  8  1  0
  7  9  1  0
  8 10  1  0
  9 11  1  0
 10 12  1  0
 11 13  1  0
 12 14  1  0
 12 15  1  0
 13 16  2  0
 13 17  1  0
 14 18  1  0
 17 19  1  0
 17 20  1  0
 17 21  1  0
 18 22  1  0
 20 23  1  0
 20 24  1  0
 20 25  1  0
 21 26  1  0
 21 27  1  0
 22 28  1  0
 23 29  1  0
 24 30  1  0
 28 31  1  0
 29 32  1  0
 29 33  1  0
 30 34  1  0
 31 35  2  0
 31 36  1  0
 32 37  1  0
 32 38  1  0
 33 39  1  0
 36 40  1  0
 38 41  1  0
 38 42  1  0
 38 43  1  0
 40 44  1  0
 41 45  2  0
 42 46  2  0
 44 47  1  0
 45 48  1  0
 47 49  2  0
 47 50  1  0
 48 51  2  0
 50 52  1  0
 50 53  2  0
 52 54  1  0
 52 55  1  0
 53 56  1  0
 56 57  1  0
 57 58  1  0
 58 59  2  0
 58 60  1  0
 60 61  1  0
 60 62  2  0
 61 63  1  0
 61 64  1  0
 62 65  1  0
 65 66  1  0
 66 67  1  0
 67 68  2  0
 67 69  1  0
 69 70  1  0
 69 71  2  0
 70 72  1  0
 70 73  1  0
 71 74  1  0
 74 75  1  0
 75 76  1  0
 76 77  2  0
 76 78  1  0
 78 79  1  0
 78 80  2  0
 79 81  1  0
 79 82  1  0
 80 83  1  0
 83 84  1  0
 84 85  1  0
 85 86  2  0
 85 87  1  0
 87 88  2  0
 87 89  1  0
 88 90  1  0
 89 91  1  0
 89 92  1  0
 23 26  1  0
 30 32  1  0
 39 41  1  0
 46 48  1  0
 54 56  2  0
 63 65  2  0
 72 74  2  0
 81 83  2  0
 90 91  2  0
  3 93  1  0
  4 94  1  0
  5 95  1  0
  5 96  1  0
  6 97  1  0
  6 98  1  0
  7 99  1  0
  7100  1  0
  8101  1  0
  8102  1  0
 10103  1  0
 10104  1  0
 11105  1  0
 11106  1  0
 14107  1  0
 14108  1  0
 15109  1  0
 15110  1  0
 15111  1  0
 18112  1  0
 18113  1  0
 19114  1  0
 21115  1  0
 22116  1  0
 22117  1  0
 23118  1  0
 24119  1  0
 24120  1  0
 25121  1  0
 25122  1  0
 25123  1  0
 26124  1  0
 26125  1  0
 27126  1  0
 27127  1  0
 27128  1  0
 28129  1  0
 29130  1  0
 30131  1  0
 33132  1  0
 33133  1  0
 34134  1  0
 36135  1  0
 36136  1  0
 39137  1  0
 39138  1  0
 40139  1  0
 40140  1  0
 42141  1  0
 43142  1  0
 43143  1  0
 43144  1  0
 44145  1  0
 45146  1  0
 46147  1  0
 53148  1  0
 54149  1  0
 55150  1  0
 55151  1  0
 55152  1  0
 57153  1  0
 62154  1  0
 63155  1  0
 64156  1  0
 64157  1  0
 64158  1  0
 66159  1  0
 71160  1  0
 72161  1  0
 73162  1  0
 73163  1  0
 73164  1  0
 75165  1  0
 80166  1  0
 81167  1  0
 82168  1  0
 82169  1  0
 82170  1  0
 84171  1  0
 90172  1  0
 91173  1  0
 92174  1  0
 92175  1  0
 92176  1  0
M  END
> <Name>
CHEMBL553440

> <IC50 nM>
16

> <Molecule_ChEMBL_ID>
CHEMBL553440

> <Smiles>
C[C@@H]1C[C@H]2[C@@H]3CCC4=CC(=O)C=C[C@]4(C)[C@@]3(F)[C@@H](O)C[C@]2(C)[C@@]1(O)C(=O)CSCCNC(=S)NCCCN(C)CCCNC(=O)CCNC(=O)c1cc(NC(=O)c2cc(NC(=O)c3cc(NC(=O)c4cc(NC(=O)c5nccn5C)cn4C)cn3C)cn2C)cn1C

$$$$
CHEMBL553441
  SciTegic08162514323D

120127  0  0  1  0            999 V2000
    7.0880   -1.0410    4.1230 F   0  0
    6.9960   -1.1150    5.5000 C   0  0  1  0  0  0
    8.4530   -1.3320    6.0260 C   0  0  1  0  0  0
    6.2950    0.2210    5.8950 C   0  0  2  0  0  0
    6.1080   -2.3400    5.8810 C   0  0  1  0  0  0
    9.0470   -2.5370    5.2890 C   0  0
    9.3420   -0.0960    5.9010 C   0  0
    8.4550   -1.6780    7.5220 C   0  0
    6.2910    0.3910    7.2990 O   0  0
    4.8440    0.3120    5.3540 C   0  0
    4.7420   -2.1900    5.1840 C   0  0  2  0  0  0
    6.7950   -3.7110    5.6600 C   0  0
   10.3600   -2.6090    4.9840 C   0  0
    8.1150   -3.6620    4.8770 C   0  0
   10.6430   -0.1780    5.5630 C   0  0
    3.9980   -0.9360    5.6820 C   0  0  2  0  0  0
    3.7030   -3.2930    5.3870 C   0  0
   11.2520   -1.4690    5.2170 C   0  0
    2.6350   -1.1020    4.9670 C   0  0  2  0  0  0
    3.7290   -1.0140    7.1950 C   0  0
    2.3380   -2.6020    5.2130 C   0  0  1  0  0  0
   12.4510   -1.5840    5.1130 O   0  0
    2.7700   -0.8500    3.5760 O   0  0
    1.5470   -0.1840    5.4730 C   0  0
    1.4790   -3.2910    4.1510 C   0  0
    1.7950    0.7030    6.2560 O   0  0
    0.2680   -0.3750    5.0310 N   0  0
   -0.8030    0.5080    5.5140 C   0  0
   -2.1800   -0.1000    5.2400 C   0  0
   -2.5160   -0.0230    3.8130 N   0  0
   -2.7990   -1.1720    3.1290 C   0  0
   -2.7750   -2.2400    3.6930 O   0  0
   -3.1330   -1.1020    1.7130 C   0  0
   -3.2150   -2.1680    0.8610 N   0  0
   -3.4220    0.0780    1.0160 C   0  0
   -3.5510   -1.6780   -0.3630 C   0  0
   -2.9860   -3.5820    1.1970 C   0  0
   -3.6850   -0.2890   -0.3010 C   0  0
   -4.0370    0.6090   -1.4100 N   0  0
   -4.4320    1.8930   -1.1500 C   0  0
   -4.4920    2.2930   -0.0120 O   0  0
   -4.7790    2.7750   -2.2560 C   0  0
   -5.0900    4.1000   -2.1450 N   0  0
   -4.8420    2.3910   -3.6000 C   0  0
   -5.3500    4.5570   -3.4000 C   0  0
   -5.1390    4.8930   -0.9040 C   0  0
   -5.2050    3.5220   -4.3220 C   0  0
   -5.3980    3.6070   -5.7790 N   0  0
   -4.9320    2.6110   -6.5900 C   0  0
   -4.3590    1.6560   -6.1170 O   0  0
   -5.1290    2.7050   -8.0290 C   0  0
   -5.0390    3.8520   -8.7680 N   0  0
   -5.4390    1.6290   -8.8690 C   0  0
   -5.2890    3.5120  -10.0630 C   0  0
   -4.7300    5.1990   -8.2700 C   0  0
   -5.5390    2.1430  -10.1560 C   0  0
   -5.8520    1.3890  -11.3810 N   0  0
   -5.9160    2.0330  -12.5820 C   0  0
   -5.7190    3.2230  -12.6490 O   0  0
   -6.2270    1.2750  -13.7890 C   0  0
   -5.6540    1.4940  -15.0060 N   0  0
   -7.1250    0.2500  -13.8670 N   0  0
   -6.1970    0.6000  -15.8560 C   0  0
   -7.1110   -0.1740  -15.1490 C   0  0
   -7.9490   -0.2930  -12.7760 C   0  0
    6.8500    1.0700    5.4920 H   0  0
    5.9220   -2.2910    6.9550 H   0  0
    8.9320    0.8850    6.0940 H   0  0
    9.4480   -1.9630    7.8690 H   0  0
    7.7800   -2.5080    7.7250 H   0  0
    8.1250   -0.8260    8.1150 H   0  0
    7.0220    0.9900    7.5160 H   0  0
    4.9010    0.4390    4.2720 H   0  0
    4.3500    1.2130    5.7250 H   0  0
    4.9180   -2.1170    4.1190 H   0  0
    7.0080   -4.1470    6.6370 H   0  0
    6.1190   -4.4160    5.1780 H   0  0
   10.7620   -3.5120    4.5470 H   0  0
    8.6250   -4.6210    4.9750 H   0  0
    7.8930   -3.5470    3.8170 H   0  0
   11.2440    0.7190    5.5390 H   0  0
    3.7850   -3.7150    6.3790 H   0  0
    3.8540   -4.1020    4.6860 H   0  0
    4.6310   -1.2500    7.7580 H   0  0
    2.9880   -1.7850    7.4140 H   0  0
    3.3420   -0.0660    7.5670 H   0  0
    1.8130   -2.7010    6.1540 H   0  0
    1.8910   -0.9550    3.1800 H   0  0
    1.5510   -4.3750    4.2400 H   0  0
    0.4360   -2.9960    4.2480 H   0  0
    1.8110   -3.0180    3.1490 H   0  0
    0.0720   -1.1110    4.3830 H   0  0
   -0.7090    1.4800    5.0310 H   0  0
   -0.6640    0.6890    6.5780 H   0  0
   -2.9470    0.4140    5.8180 H   0  0
   -2.2110   -1.1410    5.5630 H   0  0
   -2.5370    0.8590    3.3440 H   0  0
   -3.4350    1.0800    1.4220 H   0  0
   -3.6840   -2.3070   -1.2340 H   0  0
   -3.5940   -3.9510    2.0240 H   0  0
   -1.9370   -3.7270    1.4630 H   0  0
   -3.1970   -4.2010    0.3260 H   0  0
   -3.9860    0.2790   -2.3520 H   0  0
   -4.6460    1.4020   -3.9960 H   0  0
   -5.6270    5.5820   -3.6090 H   0  0
   -4.2090    4.8930   -0.3360 H   0  0
   -5.9260    4.5080   -0.2580 H   0  0
   -5.3810    5.9280   -1.1460 H   0  0
   -5.8710    4.3970   -6.1720 H   0  0
   -5.5740    0.5980   -8.5700 H   0  0
   -5.2830    4.2310  -10.8730 H   0  0
   -3.9900    5.2250   -7.4690 H   0  0
   -5.6430    5.6660   -7.8950 H   0  0
   -4.3550    5.8150   -9.0880 H   0  0
   -6.0140    0.4020  -11.3280 H   0  0
   -5.9370    0.5290  -16.9050 H   0  0
   -7.7230   -0.9820  -15.5260 H   0  0
   -8.3200    0.4570  -12.0780 H   0  0
   -7.3670   -1.0200  -12.2070 H   0  0
   -8.8110   -0.8130  -13.1950 H   0  0
  2  1  1  0
  2  3  1  0
  2  4  1  0
  2  5  1  0
  3  6  1  0
  3  7  1  0
  3  8  1  0
  4  9  1  0
  4 10  1  0
  5 11  1  0
  5 12  1  0
  6 13  2  0
  6 14  1  0
  7 15  2  0
 10 16  1  0
 11 17  1  0
 13 18  1  0
 16 19  1  0
 16 20  1  0
 17 21  1  0
 18 22  2  0
 19 23  1  0
 19 24  1  0
 21 25  1  0
 24 26  2  0
 24 27  1  0
 27 28  1  0
 28 29  1  0
 29 30  1  0
 30 31  1  0
 31 32  2  0
 31 33  1  0
 33 34  1  0
 33 35  2  0
 34 36  1  0
 34 37  1  0
 35 38  1  0
 38 39  1  0
 39 40  1  0
 40 41  2  0
 40 42  1  0
 42 43  1  0
 42 44  2  0
 43 45  1  0
 43 46  1  0
 44 47  1  0
 47 48  1  0
 48 49  1  0
 49 50  2  0
 49 51  1  0
 51 52  1  0
 51 53  2  0
 52 54  1  0
 52 55  1  0
 53 56  1  0
 56 57  1  0
 57 58  1  0
 58 59  2  0
 58 60  1  0
 60 61  2  0
 60 62  1  0
 61 63  1  0
 62 64  1  0
 62 65  1  0
 11 16  1  0
 12 14  1  0
 15 18  1  0
 19 21  1  0
 36 38  2  0
 45 47  2  0
 54 56  2  0
 63 64  2  0
  4 66  1  0
  5 67  1  0
  7 68  1  0
  8 69  1  0
  8 70  1  0
  8 71  1  0
  9 72  1  0
 10 73  1  0
 10 74  1  0
 11 75  1  0
 12 76  1  0
 12 77  1  0
 13 78  1  0
 14 79  1  0
 14 80  1  0
 15 81  1  0
 17 82  1  0
 17 83  1  0
 20 84  1  0
 20 85  1  0
 20 86  1  0
 21 87  1  0
 23 88  1  0
 25 89  1  0
 25 90  1  0
 25 91  1  0
 27 92  1  0
 28 93  1  0
 28 94  1  0
 29 95  1  0
 29 96  1  0
 30 97  1  0
 35 98  1  0
 36 99  1  0
 37100  1  0
 37101  1  0
 37102  1  0
 39103  1  0
 44104  1  0
 45105  1  0
 46106  1  0
 46107  1  0
 46108  1  0
 48109  1  0
 53110  1  0
 54111  1  0
 55112  1  0
 55113  1  0
 55114  1  0
 57115  1  0
 63116  1  0
 64117  1  0
 65118  1  0
 65119  1  0
 65120  1  0
M  END
> <Name>
CHEMBL553441

> <IC50 nM>
550

> <Molecule_ChEMBL_ID>
CHEMBL553441

> <Smiles>
C[C@H]1C[C@@H]2[C@H]3CCC4=CC(=O)C=C[C@@]4(C)[C@]3(F)[C@H](O)C[C@@]2(C)[C@]1(O)C(=O)NCCNC(=O)c1cc(NC(=O)c2cc(NC(=O)c3cc(NC(=O)c4nccn4C)cn3C)cn2C)cn1C

$$$$
CHEMBL497472
  SciTegic08162514323D

 73 76  0  0  1  0            999 V2000
   -2.5820    0.7620    0.0700 F   0  0
   -2.3890    0.1070    1.2730 C   0  0  2  0  0  0
   -3.8110   -0.1170    1.8830 C   0  0  2  0  0  0
   -1.4320    1.0530    2.0570 C   0  0  1  0  0  0
   -1.7070   -1.2680    0.9920 C   0  0  2  0  0  0
   -4.6740   -0.8110    0.8220 C   0  0
   -4.4650    1.1600    2.4020 C   0  0
   -3.7520   -1.0590    3.0940 C   0  0
   -1.2810    0.6190    3.3960 O   0  0
   -0.0370    1.1700    1.3910 C   0  0
   -0.4010   -1.0190    0.2190 C   0  0  1  0  0  0
   -2.6470   -2.3160    0.3440 C   0  0
   -5.9960   -0.5660    0.7090 C   0  0
   -4.0020   -1.7750   -0.1370 C   0  0
   -5.7810    1.4060    2.2540 C   0  0
    0.5880   -0.2030    1.0700 C   0  0  1  0  0  0
    0.4510   -2.2300   -0.1620 C   0  0
   -6.6430    0.4810    1.5080 C   0  0
    1.7970   -0.1910    0.1170 C   0  0  1  0  0  0
    0.9940   -0.9370    2.3590 C   0  0
    1.8500   -1.6430   -0.4100 C   0  0  1  0  0  0
   -7.8460    0.5880    1.5370 O   0  0
    1.5210    0.6720   -0.9810 O   0  0
    3.0780    0.3150    0.7420 C   0  0
    2.8910   -2.5250    0.2770 C   0  0
    2.4980    0.6700   -1.8830 C   0  0
    4.0680   -0.3790    0.7750 O   0  0
    3.0840    1.7030    1.3180 C   0  0
    3.5290    0.0530   -1.7580 O   0  0
    2.2770    1.4260   -3.0000 N   0  0
    4.3320    2.3110    1.0660 O   0  0
    3.3050    1.4810   -4.0490 C   0  0
    2.9980    0.1000   -4.6290 C   0  0
    4.7050    1.5660   -3.4400 C   0  0
    3.0190    2.6110   -5.0370 C   0  0
   -1.8540    2.0570    2.1130 H   0  0
   -1.4280   -1.6970    1.9530 H   0  0
   -3.8690    1.9020    2.9120 H   0  0
   -4.7460   -1.3260    3.4510 H   0  0
   -3.2170   -0.5920    3.9200 H   0  0
   -3.2310   -1.9820    2.8400 H   0  0
   -1.8380    1.1910    3.9470 H   0  0
   -0.1540    1.7360    0.4650 H   0  0
    0.6410    1.7600    2.0080 H   0  0
   -0.6390   -0.4920   -0.6950 H   0  0
   -2.8440   -3.0960    1.0800 H   0  0
   -2.1540   -2.8260   -0.4830 H   0  0
   -6.5920   -1.1370    0.0100 H   0  0
   -3.8580   -1.2620   -1.0880 H   0  0
   -4.6680   -2.6150   -0.3460 H   0  0
   -6.2070    2.2990    2.6870 H   0  0
    0.4530   -2.9510    0.6440 H   0  0
    0.0680   -2.7340   -1.0370 H   0  0
    0.1600   -1.0290    3.0550 H   0  0
    1.7950   -0.4040    2.8690 H   0  0
    1.3510   -1.9410    2.1330 H   0  0
    2.0600   -1.6330   -1.4710 H   0  0
    2.5700   -3.5680    0.2790 H   0  0
    3.8530   -2.4510   -0.2310 H   0  0
    3.0350   -2.2190    1.3120 H   0  0
    2.9410    1.6580    2.3980 H   0  0
    2.3120    2.3070    0.8420 H   0  0
    1.4220    1.9340   -3.0940 H   0  0
    4.2850    3.2150    1.4140 H   0  0
    1.9470   -0.0060   -4.8970 H   0  0
    3.2380   -0.6840   -3.9080 H   0  0
    3.5900   -0.0820   -5.5260 H   0  0
    4.7090    2.1370   -2.5120 H   0  0
    5.3960    2.0510   -4.1310 H   0  0
    5.0940    0.5720   -3.2230 H   0  0
    3.1070    3.5920   -4.5690 H   0  0
    2.0120    2.5250   -5.4420 H   0  0
    3.7190    2.5780   -5.8730 H   0  0
  2  1  1  0
  2  3  1  0
  2  4  1  0
  2  5  1  0
  3  6  1  0
  3  7  1  0
  3  8  1  0
  4  9  1  0
  4 10  1  0
  5 11  1  0
  5 12  1  0
  6 13  2  0
  6 14  1  0
  7 15  2  0
 10 16  1  0
 11 17  1  0
 13 18  1  0
 16 19  1  0
 16 20  1  0
 17 21  1  0
 18 22  2  0
 19 23  1  0
 19 24  1  0
 21 25  1  0
 23 26  1  0
 24 27  2  0
 24 28  1  0
 26 29  2  0
 26 30  1  0
 28 31  1  0
 30 32  1  0
 32 33  1  0
 32 34  1  0
 32 35  1  0
 11 16  1  0
 12 14  1  0
 15 18  1  0
 19 21  1  0
  4 36  1  0
  5 37  1  0
  7 38  1  0
  8 39  1  0
  8 40  1  0
  8 41  1  0
  9 42  1  0
 10 43  1  0
 10 44  1  0
 11 45  1  0
 12 46  1  0
 12 47  1  0
 13 48  1  0
 14 49  1  0
 14 50  1  0
 15 51  1  0
 17 52  1  0
 17 53  1  0
 20 54  1  0
 20 55  1  0
 20 56  1  0
 21 57  1  0
 25 58  1  0
 25 59  1  0
 25 60  1  0
 28 61  1  0
 28 62  1  0
 30 63  1  0
 31 64  1  0
 33 65  1  0
 33 66  1  0
 33 67  1  0
 34 68  1  0
 34 69  1  0
 34 70  1  0
 35 71  1  0
 35 72  1  0
 35 73  1  0
M  END
> <Name>
CHEMBL497472

> <IC50 nM>
2.4

> <Molecule_ChEMBL_ID>
CHEMBL497472

> <Smiles>
C[C@H]1C[C@H]2[C@@H]3CCC4=CC(=O)C=C[C@]4(C)[C@@]3(F)[C@@H](O)C[C@]2(C)[C@@]1(OC(=O)NC(C)(C)C)C(=O)CO

$$$$
CHEMBL499629
  SciTegic08162514323D

 73 76  0  0  1  0            999 V2000
   -3.1330    0.4710   -0.2380 F   0  0
   -2.9410   -0.1820    0.9670 C   0  0  2  0  0  0
   -4.3630   -0.4080    1.5760 C   0  0  2  0  0  0
   -1.9820    0.7640    1.7500 C   0  0  1  0  0  0
   -2.2580   -1.5570    0.6860 C   0  0  2  0  0  0
   -5.2250   -1.1010    0.5160 C   0  0
   -5.0160    0.8710    2.0940 C   0  0
   -4.3030   -1.3500    2.7870 C   0  0
   -1.8320    0.3300    3.0900 O   0  0
   -0.5880    0.8790    1.0820 C   0  0
   -0.9510   -1.3100   -0.0880 C   0  0  1  0  0  0
   -3.1970   -2.6050    0.0370 C   0  0
   -6.5470   -0.8570    0.4020 C   0  0
   -4.5530   -2.0660   -0.4430 C   0  0
   -6.3320    1.1170    1.9470 C   0  0
    0.0350   -0.4920    0.7640 C   0  0  1  0  0  0
   -0.1020   -2.5190   -0.4690 C   0  0
   -7.1930    0.1910    1.2010 C   0  0
    1.2460   -0.4800   -0.1890 C   0  0  1  0  0  0
    0.4430   -1.2270    2.0510 C   0  0
    1.2990   -1.9320   -0.7170 C   0  0  1  0  0  0
   -8.3970    0.2990    1.2300 O   0  0
    0.9710    0.3830   -1.2870 O   0  0
    2.5270    0.0240    0.4340 C   0  0
    2.3400   -2.8160   -0.0310 C   0  0
    2.0250    0.5450   -2.0800 C   0  0
    2.5060    0.8240    1.3400 O   0  0
    3.8300   -0.5000   -0.1050 C   0  0
    2.4610   -0.3160   -2.8070 O   0  0
    2.6170    1.7750   -2.0370 N   0  0
    4.7400    0.5660   -0.2520 O   0  0
    3.7910    2.0430   -2.8830 C   0  0
    4.5940    3.2290   -2.3460 C   0  0
    5.9160    3.4260   -3.0860 C   0  0
    6.7950    4.5020   -2.4450 C   0  0
   -2.4040    1.7660    1.8070 H   0  0
   -1.9790   -1.9880    1.6460 H   0  0
   -4.4220    1.6110    2.6050 H   0  0
   -5.2970   -1.6110    3.1480 H   0  0
   -3.7620   -0.8830    3.6090 H   0  0
   -3.7870   -2.2750    2.5290 H   0  0
   -2.1470    1.0490    3.6600 H   0  0
   -0.7050    1.4450    0.1580 H   0  0
    0.0900    1.4690    1.7010 H   0  0
   -1.1890   -0.7810   -1.0020 H   0  0
   -3.3950   -3.3870    0.7730 H   0  0
   -2.7050   -3.1150   -0.7890 H   0  0
   -7.1430   -1.4260   -0.2970 H   0  0
   -4.4080   -1.5530   -1.3950 H   0  0
   -5.2190   -2.9040   -0.6520 H   0  0
   -6.7600    2.0100    2.3790 H   0  0
   -0.1000   -3.2400    0.3380 H   0  0
   -0.4820   -3.0230   -1.3440 H   0  0
    0.8870   -2.1990    1.8420 H   0  0
   -0.4240   -1.3890    2.6930 H   0  0
    1.1700   -0.6430    2.6150 H   0  0
    1.5100   -1.9240   -1.7770 H   0  0
    3.2580   -2.8930   -0.6150 H   0  0
    1.9530   -3.8240    0.1150 H   0  0
    2.6020   -2.4140    0.9490 H   0  0
    3.6720   -0.9490   -1.0860 H   0  0
    4.2600   -1.2190    0.5940 H   0  0
    2.2560    2.4880   -1.4360 H   0  0
    5.5660    0.1910   -0.5960 H   0  0
    4.4100    1.1470   -2.9280 H   0  0
    3.4610    2.2310   -3.9040 H   0  0
    3.9980    4.1410   -2.3710 H   0  0
    4.7640    3.1250   -1.2730 H   0  0
    6.4590    2.4840   -3.1660 H   0  0
    5.7400    3.6490   -4.1390 H   0  0
    7.7310    4.6130   -2.9940 H   0  0
    6.2770    5.4610   -2.4300 H   0  0
    7.0410    4.2380   -1.4180 H   0  0
  2  1  1  0
  2  3  1  0
  2  4  1  0
  2  5  1  0
  3  6  1  0
  3  7  1  0
  3  8  1  0
  4  9  1  0
  4 10  1  0
  5 11  1  0
  5 12  1  0
  6 13  2  0
  6 14  1  0
  7 15  2  0
 10 16  1  0
 11 17  1  0
 13 18  1  0
 16 19  1  0
 16 20  1  0
 17 21  1  0
 18 22  2  0
 19 23  1  0
 19 24  1  0
 21 25  1  0
 23 26  1  0
 24 27  2  0
 24 28  1  0
 26 29  2  0
 26 30  1  0
 28 31  1  0
 30 32  1  0
 32 33  1  0
 33 34  1  0
 34 35  1  0
 11 16  1  0
 12 14  1  0
 15 18  1  0
 19 21  1  0
  4 36  1  0
  5 37  1  0
  7 38  1  0
  8 39  1  0
  8 40  1  0
  8 41  1  0
  9 42  1  0
 10 43  1  0
 10 44  1  0
 11 45  1  0
 12 46  1  0
 12 47  1  0
 13 48  1  0
 14 49  1  0
 14 50  1  0
 15 51  1  0
 17 52  1  0
 17 53  1  0
 20 54  1  0
 20 55  1  0
 20 56  1  0
 21 57  1  0
 25 58  1  0
 25 59  1  0
 25 60  1  0
 28 61  1  0
 28 62  1  0
 30 63  1  0
 31 64  1  0
 32 65  1  0
 32 66  1  0
 33 67  1  0
 33 68  1  0
 34 69  1  0
 34 70  1  0
 35 71  1  0
 35 72  1  0
 35 73  1  0
M  END
> <Name>
CHEMBL499629

> <IC50 nM>
2.8

> <Molecule_ChEMBL_ID>
CHEMBL499629

> <Smiles>
CCCCNC(=O)O[C@]1(C(=O)CO)[C@@H](C)C[C@H]2[C@@H]3CCC4=CC(=O)C=C[C@]4(C)[C@@]3(F)[C@@H](O)C[C@@]21C

$$$$
CHEMBL500938
  SciTegic08162514323D

 70 73  0  0  1  0            999 V2000
   -2.8910   -0.3200   -1.0820 F   0  0
   -2.7540    0.4450    0.0590 C   0  0  2  0  0  0
   -4.2050    0.8260    0.5200 C   0  0  2  0  0  0
   -1.8480    1.6450   -0.3890 C   0  0  1  0  0  0
   -2.0630   -0.4550    1.1250 C   0  0  2  0  0  0
   -4.9920   -0.4390    0.8770 C   0  0
   -4.9060    1.6860   -0.5290 C   0  0
   -4.1990    1.6520    1.8140 C   0  0
   -1.8710    2.6930    0.5630 O   0  0
   -0.3730    1.2500   -0.6540 C   0  0
   -0.6290   -0.8070    0.6860 C   0  0  1  0  0  0
   -2.8710   -1.7440    1.3770 C   0  0
   -6.2400   -0.6700    0.4160 C   0  0
   -4.3160   -1.4390    1.7950 C   0  0
   -6.1490    1.4280   -0.9770 C   0  0
    0.2340    0.4490    0.5140 C   0  0  1  0  0  0
    0.1950   -1.6450    1.6620 C   0  0
   -6.9080    0.2730   -0.4880 C   0  0
    1.6090   -0.1990    0.2700 C   0  0  1  0  0  0
    0.3200    1.2830    1.8030 C   0  0
    1.6620   -1.3130    1.3360 C   0  0  1  0  0  0
   -8.0570    0.1040   -0.8240 O   0  0
    1.6250   -0.8110   -1.0160 O   0  0
    2.7740    0.7700    0.2950 C   0  0
    2.3790   -0.9080    2.6250 C   0  0
    2.8360   -1.2460   -1.3540 C   0  0
    2.6060    1.9470    0.0840 O   0  0
    4.1430    0.2230    0.5920 C   0  0
    3.4260   -2.1210   -0.7660 O   0  0
    3.4020   -0.6390   -2.4380 N   0  0
    4.7440    0.9880    1.6110 O   0  0
    4.7400   -1.0590   -2.8830 C   0  0
    5.2190   -0.2070   -4.0610 C   0  0
    6.6080   -0.6110   -4.5530 C   0  0
   -2.2460    2.0740   -1.3090 H   0  0
   -2.0120    0.0960    2.0660 H   0  0
   -4.3910    2.5450   -0.9360 H   0  0
   -5.1700    1.6370    2.3110 H   0  0
   -3.9490    2.6910    1.6050 H   0  0
   -3.4590    1.2660    2.5160 H   0  0
   -2.2830    3.4590    0.1330 H   0  0
   -0.3440    0.6450   -1.5610 H   0  0
    0.2310    2.1330   -0.8690 H   0  0
   -0.6760   -1.3460   -0.2520 H   0  0
   -2.8770   -2.3650    0.4800 H   0  0
   -2.3960   -2.3420    2.1540 H   0  0
   -6.7660   -1.5660    0.7130 H   0  0
   -4.8850   -2.3710    1.8380 H   0  0
   -4.3180   -1.0350    2.8090 H   0  0
   -6.5900    2.0860   -1.7110 H   0  0
   -0.0160   -2.6970    1.5450 H   0  0
   -0.0620   -1.3790    2.6800 H   0  0
   -0.6580    1.6430    2.1210 H   0  0
    0.9630    2.1520    1.6580 H   0  0
    0.7380    0.6910    2.6170 H   0  0
    2.1640   -2.1800    0.9340 H   0  0
    3.3200   -1.4430    2.7520 H   0  0
    1.7580   -1.1170    3.4940 H   0  0
    2.6020    0.1600    2.6230 H   0  0
    4.7700    0.2890   -0.2970 H   0  0
    4.0630   -0.8070    0.9430 H   0  0
    2.9120    0.0840   -2.9240 H   0  0
    5.6210    0.6070    1.7750 H   0  0
    5.4360   -0.9840   -2.0470 H   0  0
    4.7130   -2.1130   -3.1560 H   0  0
    4.4960   -0.2380   -4.8750 H   0  0
    5.1930    0.8520   -3.8050 H   0  0
    6.9120    0.0100   -5.3970 H   0  0
    7.3440   -0.5140   -3.7560 H   0  0
    6.6110   -1.6500   -4.8850 H   0  0
  2  1  1  0
  2  3  1  0
  2  4  1  0
  2  5  1  0
  3  6  1  0
  3  7  1  0
  3  8  1  0
  4  9  1  0
  4 10  1  0
  5 11  1  0
  5 12  1  0
  6 13  2  0
  6 14  1  0
  7 15  2  0
 10 16  1  0
 11 17  1  0
 13 18  1  0
 16 19  1  0
 16 20  1  0
 17 21  1  0
 18 22  2  0
 19 23  1  0
 19 24  1  0
 21 25  1  0
 23 26  1  0
 24 27  2  0
 24 28  1  0
 26 29  2  0
 26 30  1  0
 28 31  1  0
 30 32  1  0
 32 33  1  0
 33 34  1  0
 11 16  1  0
 12 14  1  0
 15 18  1  0
 19 21  1  0
  4 35  1  0
  5 36  1  0
  7 37  1  0
  8 38  1  0
  8 39  1  0
  8 40  1  0
  9 41  1  0
 10 42  1  0
 10 43  1  0
 11 44  1  0
 12 45  1  0
 12 46  1  0
 13 47  1  0
 14 48  1  0
 14 49  1  0
 15 50  1  0
 17 51  1  0
 17 52  1  0
 20 53  1  0
 20 54  1  0
 20 55  1  0
 21 56  1  0
 25 57  1  0
 25 58  1  0
 25 59  1  0
 28 60  1  0
 28 61  1  0
 30 62  1  0
 31 63  1  0
 32 64  1  0
 32 65  1  0
 33 66  1  0
 33 67  1  0
 34 68  1  0
 34 69  1  0
 34 70  1  0
M  END
> <Name>
CHEMBL500938

> <IC50 nM>
3.6

> <Molecule_ChEMBL_ID>
CHEMBL500938

> <Smiles>
CCCNC(=O)O[C@]1(C(=O)CO)[C@@H](C)C[C@H]2[C@@H]3CCC4=CC(=O)C=C[C@]4(C)[C@@]3(F)[C@@H](O)C[C@@]21C

$$$$
CHEMBL375838
  SciTegic08162514323D

 51 53  0  0  1  0            999 V2000
    2.5270   -0.7150    2.5470 F   0  0
    2.2910    0.3140    1.6720 C   0  0
    2.1970    1.4920    2.3670 F   0  0
    3.3200    0.3940    0.7720 F   0  0
    0.9810    0.0570    0.9280 C   0  0  1  0  0  0
   -0.0840    0.2300    1.8360 O   0  0
    0.7700    1.0180   -0.2440 C   0  0
    1.0060   -1.4080    0.4920 C   0  0
    0.8280    2.4240    0.2070 N   0  0
   -0.1820   -1.7810   -0.3960 C   0  0
   -0.3120    3.1450    0.4530 C   0  0
    2.0860    2.9790    0.3670 C   0  0
   -0.1350   -3.2110   -0.8010 C   0  0
   -1.5270   -1.4180    0.2320 C   0  0
   -0.0370   -1.2540   -1.8240 C   0  0
   -0.2210    4.5060    0.8870 C   0  0
   -1.6050    2.5700    0.2890 C   0  0
    2.2700    4.2540    0.7720 C   0  0
   -1.1580   -3.7580   -1.6020 C   0  0
    0.9380   -4.0180   -0.3810 C   0  0
    1.1210    5.1350    1.0660 C   0  0
   -1.3930    5.2600    1.1470 C   0  0
   -2.7700    3.3280    0.5510 C   0  0
   -2.1680   -3.0120   -2.0020 O   0  0
   -1.1000   -5.1110   -1.9770 C   0  0
    0.9920   -5.3690   -0.7580 C   0  0
    1.3610    6.2660    1.4180 O   0  0
   -2.6640    4.6700    0.9790 C   0  0
   -0.0270   -5.9180   -1.5550 C   0  0
   -0.7400    0.7990    1.4040 H   0  0
   -0.1930    0.8340   -0.7230 H   0  0
    1.5220    0.8550   -1.0160 H   0  0
    1.9470   -1.6470   -0.0020 H   0  0
    1.0590   -2.0660    1.3590 H   0  0
    2.9770    2.3960    0.1700 H   0  0
   -2.3400   -2.0200   -0.1720 H   0  0
   -1.7660   -0.3690    0.0510 H   0  0
   -1.5020   -1.5720    1.3110 H   0  0
   -0.8280   -0.5410   -2.0550 H   0  0
    0.9300   -0.7680   -1.9610 H   0  0
   -0.1030   -2.0700   -2.5450 H   0  0
   -1.7300    1.5470   -0.0350 H   0  0
    3.2740    4.6350    0.8810 H   0  0
    1.7250   -3.6020    0.2320 H   0  0
   -1.3240    6.2870    1.4730 H   0  0
   -3.7440    2.8790    0.4240 H   0  0
   -2.8590   -3.4060   -2.5490 H   0  0
   -1.8810   -5.5370   -2.5900 H   0  0
    1.8160   -5.9880   -0.4340 H   0  0
   -3.5570    5.2440    1.1780 H   0  0
    0.0140   -6.9570   -1.8460 H   0  0
  1  2  1  0
  2  3  1  0
  2  4  1  0
  2  5  1  0
  5  6  1  0
  5  7  1  0
  5  8  1  0
  7  9  1  0
  8 10  1  0
  9 11  1  0
  9 12  1  0
 10 13  1  0
 10 14  1  0
 10 15  1  0
 11 16  2  0
 11 17  1  0
 12 18  2  0
 13 19  2  0
 13 20  1  0
 16 21  1  0
 16 22  1  0
 17 23  2  0
 19 24  1  0
 19 25  1  0
 20 26  2  0
 21 27  2  0
 22 28  2  0
 25 29  2  0
 18 21  1  0
 23 28  1  0
 26 29  1  0
  6 30  1  0
  7 31  1  0
  7 32  1  0
  8 33  1  0
  8 34  1  0
 12 35  1  0
 14 36  1  0
 14 37  1  0
 14 38  1  0
 15 39  1  0
 15 40  1  0
 15 41  1  0
 17 42  1  0
 18 43  1  0
 20 44  1  0
 22 45  1  0
 23 46  1  0
 24 47  1  0
 25 48  1  0
 26 49  1  0
 28 50  1  0
 29 51  1  0
M  END
> <Name>
CHEMBL375838

> <IC50 nM>
6

> <Molecule_ChEMBL_ID>
CHEMBL375838

> <Smiles>
CC(C)(CC(O)(Cn1ccc(=O)c2ccccc21)C(F)(F)F)c1ccccc1O

$$$$
CHEMBL4515467
  SciTegic08162514323D

 68 72  0  0  1  0            999 V2000
   -5.9860   -0.1460   -2.5310 O   0  0
   -4.9550   -0.0350   -1.9120 C   0  0
   -4.3750   -1.1930   -1.2090 C   0  0
   -4.2210    1.2750   -1.8400 C   0  0
   -3.1660   -1.1540   -0.6040 C   0  0
   -2.7070    1.0410   -1.7910 C   0  0
   -2.2720    0.0820   -0.6520 C   0  0  2  0  0  0
   -2.6760   -2.3570    0.1780 C   0  0
   -0.7680   -0.3070   -0.8560 C   0  0  1  0  0  0
   -2.5060    0.7640    0.7050 C   0  0
   -1.2030   -2.6840   -0.0760 C   0  0
    0.2380    0.8890   -0.9080 C   0  0  1  0  0  0
   -0.3110   -1.4450    0.0960 C   0  0  1  0  0  0
    0.1370    1.8200    0.2440 C   0  0
    1.6970    0.4160   -1.1110 C   0  0
    1.1430   -1.8340   -0.2340 C   0  0  1  0  0  0
    0.3110    3.2010    0.0510 C   0  0
   -0.1330    1.3200    1.5310 C   0  0
    2.1170   -0.6560   -0.0860 C   0  0  1  0  0  0
    1.7930   -2.9020    0.6520 C   0  0
    0.2150    4.0820    1.1430 C   0  0
   -0.2290    2.2030    2.6210 C   0  0
    3.4820   -1.3710   -0.2850 C   0  0  2  0  0  0
    2.0550   -0.1130    1.3550 C   0  0
    3.3050   -2.6500    0.5600 C   0  0
   -0.0550    3.5860    2.4300 C   0  0
    4.5570   -0.5920    0.2090 O   0  0
    3.7730   -1.6950   -1.6910 C   0  0
   -0.1450    4.4100    3.4530 O   0  0
    4.0230   -1.9510   -2.8260 C   0  0
   -0.4710    3.8670    4.7230 C   0  0
    4.3400   -2.2520   -4.2210 C   0  0
   -4.9530   -2.1040   -1.1760 H   0  0
   -4.4770    1.8950   -2.6990 H   0  0
   -4.5470    1.8160   -0.9530 H   0  0
   -2.2010    2.0020   -1.6950 H   0  0
   -2.3910    0.6310   -2.7520 H   0  0
   -2.8160   -2.1520    1.2400 H   0  0
   -3.2850   -3.2360   -0.0430 H   0  0
   -0.7150   -0.7460   -1.8560 H   0  0
   -3.5680    0.8710    0.9280 H   0  0
   -2.0610    1.7580    0.7210 H   0  0
   -2.0550    0.1840    1.5120 H   0  0
   -0.8910   -3.4750    0.6030 H   0  0
   -1.0940   -3.0820   -1.0860 H   0  0
   -0.0120    1.4940   -1.7770 H   0  0
   -0.3770   -1.1040    1.1310 H   0  0
    2.3890    1.2580   -1.0780 H   0  0
    1.7750    0.0160   -2.1250 H   0  0
    1.1640   -2.1930   -1.2560 H   0  0
    0.5200    3.5920   -0.9360 H   0  0
   -0.2680    0.2600    1.6870 H   0  0
    1.4630   -2.7950    1.6760 H   0  0
    1.5270   -3.8980    0.3320 H   0  0
    0.3500    5.1430    0.9880 H   0  0
   -0.4360    1.8150    3.6070 H   0  0
    1.2360   -0.5570    1.9220 H   0  0
    1.9120    0.9690    1.3530 H   0  0
    2.9820   -0.3260    1.8870 H   0  0
    3.6910   -2.5200    1.5620 H   0  0
    3.8240   -3.5060    0.1500 H   0  0
    4.5920    0.2190   -0.3220 H   0  0
   -0.4470    4.6720    5.4570 H   0  0
   -1.4140    3.3260    4.6310 H   0  0
    0.3010    3.1470    4.9940 H   0  0
    5.3110   -2.7460   -4.2890 H   0  0
    4.3750   -1.3340   -4.8070 H   0  0
    3.5840   -2.9100   -4.6470 H   0  0
  1  2  2  0
  2  3  1  0
  2  4  1  0
  3  5  2  0
  4  6  1  0
  5  7  1  0
  5  8  1  0
  7  9  1  0
  7 10  1  0
  8 11  1  0
  9 12  1  0
  9 13  1  0
 12 14  1  0
 12 15  1  0
 13 16  1  0
 14 17  2  0
 14 18  1  0
 15 19  1  0
 16 20  1  0
 17 21  1  0
 18 22  2  0
 19 23  1  0
 19 24  1  0
 20 25  1  0
 21 26  2  0
 23 27  1  0
 23 28  1  0
 26 29  1  0
 28 30  3  0
 29 31  1  0
 30 32  1  0
  6  7  1  0
 13 11  1  0
 16 19  1  0
 22 26  1  0
 23 25  1  0
  3 33  1  0
  4 34  1  0
  4 35  1  0
  6 36  1  0
  6 37  1  0
  8 38  1  0
  8 39  1  0
  9 40  1  0
 10 41  1  0
 10 42  1  0
 10 43  1  0
 11 44  1  0
 11 45  1  0
 12 46  1  0
 13 47  1  0
 15 48  1  0
 15 49  1  0
 16 50  1  0
 17 51  1  0
 18 52  1  0
 20 53  1  0
 20 54  1  0
 21 55  1  0
 22 56  1  0
 24 57  1  0
 24 58  1  0
 24 59  1  0
 25 60  1  0
 25 61  1  0
 27 62  1  0
 31 63  1  0
 31 64  1  0
 31 65  1  0
 32 66  1  0
 32 67  1  0
 32 68  1  0
M  END
> <Name>
CHEMBL4515467

> <IC50 nM>
58.3

> <Molecule_ChEMBL_ID>
CHEMBL4515467

> <Smiles>
CC#C[C@]1(O)CC[C@H]2[C@@H]3CCC4=CC(=O)CC[C@]4(C)[C@H]3[C@@H](c3ccc(OC)cc3)C[C@@]21C

$$$$
CHEMBL4165975
  SciTegic08162514323D

 82 86  0  0  1  0            999 V2000
   -6.4080   -2.6470    0.2210 O   0  0
   -5.2110   -2.4920    0.1620 C   0  0
   -4.3750   -2.6060    1.3650 C   0  0
   -4.5180   -2.1860   -1.1390 C   0  0
   -3.1020   -2.1640    1.4040 C   0  0
   -3.3440   -1.2070   -0.9750 C   0  0
   -2.4690   -1.4610    0.2520 C   0  0
   -2.2970   -2.3870    2.6660 C   0  0
   -1.1720   -1.0430    0.3030 C   0  0
   -0.8160   -2.5550    2.3360 C   0  0
   -0.5210   -0.2250   -0.8110 C   0  0  1  0  0  0
   -0.3010   -1.3560    1.5220 C   0  0  1  0  0  0
   -0.7950    1.2270   -0.6130 C   0  0
    0.9860   -0.5060   -1.0140 C   0  0
    1.1580   -1.6540    1.1410 C   0  0  1  0  0  0
   -0.2930    2.1660   -1.5290 C   0  0
   -1.5550    1.6560    0.4880 C   0  0
    1.7830   -0.5350    0.3010 C   0  0  1  0  0  0
    2.1620   -1.8110    2.2870 C   0  0
   -0.5490    3.5370   -1.3460 C   0  0
   -1.8120    3.0250    0.6760 C   0  0
    3.2680   -0.9940    0.2460 C   0  0  2  0  0  0
    1.6910    0.8070    1.0450 C   0  0
    3.5250   -1.3910    1.7130 C   0  0
   -1.3090    3.9690   -0.2420 C   0  0
    4.1270    0.0680   -0.1390 O   0  0
    3.5040   -2.1270   -0.6640 C   0  0
   -1.5610    5.3030   -0.0610 N   0  0
    3.7050   -3.0450   -1.3960 C   0  0
   -1.9020    5.8360    1.2660 C   0  0
   -1.4880    6.2270   -1.2030 C   0  0
    3.9470   -4.1720   -2.2890 C   0  0
   -1.2320    7.1910    1.5020 C   0  0
   -3.4180    5.8850    1.4630 C   0  0
    3.2340   -5.4080   -1.7340 C   0  0
    3.4000   -3.8320   -3.6780 C   0  0
    5.4530   -4.4280   -2.3670 C   0  0
   -4.8090   -3.0610    2.2440 H   0  0
   -5.2360   -1.7890   -1.8570 H   0  0
   -4.1500   -3.1230   -1.5570 H   0  0
   -2.7730   -1.2750   -1.8950 H   0  0
   -3.7270   -0.1860   -0.9200 H   0  0
   -2.4340   -1.5330    3.3320 H   0  0
   -2.6540   -3.2660    3.2010 H   0  0
   -0.2500   -2.6620    3.2600 H   0  0
   -0.6740   -3.4790    1.7740 H   0  0
   -0.9610   -0.4690   -1.7710 H   0  0
   -0.3240   -0.4810    2.1700 H   0  0
    1.0740   -1.4690   -1.5210 H   0  0
    1.4280    0.2210   -1.6990 H   0  0
    1.1660   -2.5740    0.5680 H   0  0
    0.2930    1.8420   -2.3770 H   0  0
   -1.9430    0.9370    1.1950 H   0  0
    2.1780   -2.8260    2.6560 H   0  0
    1.9020   -1.1680    3.1170 H   0  0
   -0.1540    4.2460   -2.0590 H   0  0
   -2.3980    3.3380    1.5290 H   0  0
    0.6720    1.0230    1.3630 H   0  0
    2.0240    1.6250    0.4080 H   0  0
    2.3220    0.7990    1.9340 H   0  0
    3.8970   -0.5510    2.2850 H   0  0
    4.2640   -2.1760    1.8200 H   0  0
    3.7790    0.4340   -0.9670 H   0  0
   -1.4550    5.0700    1.9000 H   0  0
   -1.7210    5.7770   -2.1680 H   0  0
   -0.4840    6.6470   -1.2620 H   0  0
   -2.1860    7.0490   -1.0430 H   0  0
   -0.1580    7.1500    1.3150 H   0  0
   -1.3790    7.5200    2.5310 H   0  0
   -1.6580    7.9490    0.8460 H   0  0
   -3.8650    4.9140    1.2520 H   0  0
   -3.6640    6.1740    2.4840 H   0  0
   -3.8690    6.6150    0.7930 H   0  0
    3.5860   -5.6640   -0.7360 H   0  0
    3.3990   -6.2720   -2.3790 H   0  0
    2.1580   -5.2360   -1.6760 H   0  0
    3.8750   -2.9410   -4.0940 H   0  0
    2.3260   -3.6490   -3.6350 H   0  0
    3.5700   -4.6540   -4.3710 H   0  0
    5.9920   -3.5570   -2.7380 H   0  0
    5.6700   -5.2640   -3.0330 H   0  0
    5.8520   -4.6720   -1.3830 H   0  0
  1  2  2  0
  2  3  1  0
  2  4  1  0
  3  5  2  0
  4  6  1  0
  5  7  1  0
  5  8  1  0
  7  9  2  0
  8 10  1  0
  9 11  1  0
  9 12  1  0
 11 13  1  0
 11 14  1  0
 12 15  1  0
 13 16  2  0
 13 17  1  0
 14 18  1  0
 15 19  1  0
 16 20  1  0
 17 21  2  0
 18 22  1  0
 18 23  1  0
 19 24  1  0
 20 25  2  0
 22 26  1  0
 22 27  1  0
 25 28  1  0
 27 29  3  0
 28 30  1  0
 28 31  1  0
 29 32  1  0
 30 33  1  0
 30 34  1  0
 32 35  1  0
 32 36  1  0
 32 37  1  0
  6  7  1  0
 12 10  1  0
 15 18  1  0
 21 25  1  0
 22 24  1  0
  3 38  1  0
  4 39  1  0
  4 40  1  0
  6 41  1  0
  6 42  1  0
  8 43  1  0
  8 44  1  0
 10 45  1  0
 10 46  1  0
 11 47  1  0
 12 48  1  0
 14 49  1  0
 14 50  1  0
 15 51  1  0
 16 52  1  0
 17 53  1  0
 19 54  1  0
 19 55  1  0
 20 56  1  0
 21 57  1  0
 23 58  1  0
 23 59  1  0
 23 60  1  0
 24 61  1  0
 24 62  1  0
 26 63  1  0
 30 64  1  0
 31 65  1  0
 31 66  1  0
 31 67  1  0
 33 68  1  0
 33 69  1  0
 33 70  1  0
 34 71  1  0
 34 72  1  0
 34 73  1  0
 35 74  1  0
 35 75  1  0
 35 76  1  0
 36 77  1  0
 36 78  1  0
 36 79  1  0
 37 80  1  0
 37 81  1  0
 37 82  1  0
M  END
> <Name>
CHEMBL4165975

> <IC50 nM>
43

> <Molecule_ChEMBL_ID>
CHEMBL4165975

> <Smiles>
CC(C)N(C)c1ccc([C@H]2C[C@@]3(C)[C@@H](CC[C@@]3(O)C#CC(C)(C)C)[C@@H]3CCC4=CC(=O)CCC4=C32)cc1

$$$$
CHEMBL4164900
  SciTegic08162514323D

 76 80  0  0  1  0            999 V2000
    0.4240    1.2150   -3.1250 F   0  0
    0.0590    2.0630   -2.1640 C   0  0
   -0.4980    1.5820   -0.9630 C   0  0
    0.2300    3.4450   -2.3570 C   0  0
   -0.8830    2.4900    0.0430 C   0  0
   -0.6820    0.1090   -0.7560 C   0  0  2  0  0  0
   -0.1540    4.3520   -1.3520 C   0  0
   -1.4080    2.0490    1.1860 F   0  0
   -0.7110    3.8710   -0.1520 C   0  0
   -1.6270   -0.1720    0.4220 C   0  0
    0.6970   -0.5920   -0.6640 C   0  0
    0.0140    5.6990   -1.5410 N   0  0
   -2.9570    0.1080    0.3540 C   0  0
   -1.0610   -0.7440    1.7190 C   0  0  2  0  0  0
    1.2850   -0.5410    0.7520 C   0  0  1  0  0  0
   -0.1990    6.2850   -2.8730 C   0  0
    0.4060    6.5760   -0.4300 C   0  0
   -3.8360   -0.1250    1.5330 C   0  0
   -3.5660    0.7110   -0.9100 C   0  0
    0.3260   -1.4000    1.5700 C   0  0  1  0  0  0
   -2.0530   -1.7260    2.3670 C   0  0
    2.6370   -1.2420    1.0200 C   0  0  2  0  0  0
    1.3300    0.8890    1.3160 C   0  0
   -5.0370    0.4880    1.6290 C   0  0
   -3.3870   -1.0290    2.6640 C   0  0
   -5.0840    0.9770   -0.8550 C   0  0
    1.0740   -1.6070    2.8890 C   0  0
    3.7290   -0.3940    0.7150 O   0  0
    2.8220   -2.4880    0.2680 C   0  0
    2.5610   -1.4980    2.5390 C   0  0
   -5.5350    1.3300    0.5350 C   0  0
    2.9880   -3.4940   -0.3440 C   0  0
   -6.2790    2.2680    0.7480 O   0  0
    3.2190   -4.7300   -1.0920 C   0  0
    2.1430   -4.8850   -2.1620 C   0  0
    3.1700   -5.9180   -0.1310 C   0  0
    4.5960   -4.6680   -1.7580 C   0  0
    0.6620    3.7990   -3.2830 H   0  0
   -1.1500   -0.2670   -1.6680 H   0  0
   -1.0140    4.5570    0.6290 H   0  0
    1.4000   -0.1640   -1.3810 H   0  0
    0.5630   -1.6250   -0.9750 H   0  0
   -0.9590    0.1020    2.4040 H   0  0
   -0.6410    5.6100   -3.6060 H   0  0
    0.7540    6.6310   -3.2700 H   0  0
   -0.8570    7.1510   -2.7810 H   0  0
    0.7090    5.9650    0.4200 H   0  0
    1.1800    7.2620   -0.7710 H   0  0
   -0.4550    7.1720   -0.1230 H   0  0
   -3.0780    1.6640   -1.1110 H   0  0
   -3.3560    0.0630   -1.7640 H   0  0
    0.1930   -2.3690    1.0960 H   0  0
   -2.2170   -2.5840    1.7130 H   0  0
   -1.6470   -2.1230    3.2970 H   0  0
    0.4840    1.0940    1.9750 H   0  0
    1.3130    1.6230    0.5120 H   0  0
    2.2440    1.0490    1.8910 H   0  0
   -5.6470    0.3610    2.5140 H   0  0
   -3.2720   -0.4220    3.5630 H   0  0
   -4.1560   -1.7690    2.8810 H   0  0
   -5.6290    0.0840   -1.1760 H   0  0
   -5.3440    1.7740   -1.5550 H   0  0
    0.8030   -0.8420    3.6060 H   0  0
    0.8240   -2.5640    3.3260 H   0  0
    3.5720   -0.0370   -0.1740 H   0  0
    2.9730   -0.6640    3.0880 H   0  0
    3.1090   -2.3670    2.8520 H   0  0
    2.1540   -4.0570   -2.8710 H   0  0
    1.1500   -4.9200   -1.7090 H   0  0
    2.2850   -5.8070   -2.7230 H   0  0
    3.9340   -5.8480    0.6430 H   0  0
    3.3260   -6.8550   -0.6680 H   0  0
    2.1990   -5.9750    0.3630 H   0  0
    5.3970   -4.5640   -1.0270 H   0  0
    4.6540   -3.8180   -2.4380 H   0  0
    4.7850   -5.5720   -2.3360 H   0  0
  1  2  1  0
  2  3  2  0
  2  4  1  0
  3  5  1  0
  6  3  1  0
  4  7  2  0
  5  8  1  0
  5  9  2  0
  6 10  1  0
  6 11  1  0
  7 12  1  0
 10 13  2  0
 10 14  1  0
 11 15  1  0
 12 16  1  0
 12 17  1  0
 13 18  1  0
 13 19  1  0
 14 20  1  0
 14 21  1  0
 15 22  1  0
 15 23  1  0
 18 24  2  0
 18 25  1  0
 19 26  1  0
 20 27  1  0
 22 28  1  0
 22 29  1  0
 22 30  1  0
 24 31  1  0
 29 32  3  0
 31 33  2  0
 32 34  1  0
 34 35  1  0
 34 36  1  0
 34 37  1  0
  7  9  1  0
 15 20  1  0
 21 25  1  0
 26 31  1  0
 27 30  1  0
  4 38  1  0
  6 39  1  0
  9 40  1  0
 11 41  1  0
 11 42  1  0
 14 43  1  0
 16 44  1  0
 16 45  1  0
 16 46  1  0
 17 47  1  0
 17 48  1  0
 17 49  1  0
 19 50  1  0
 19 51  1  0
 20 52  1  0
 21 53  1  0
 21 54  1  0
 23 55  1  0
 23 56  1  0
 23 57  1  0
 24 58  1  0
 25 59  1  0
 25 60  1  0
 26 61  1  0
 26 62  1  0
 27 63  1  0
 27 64  1  0
 28 65  1  0
 30 66  1  0
 30 67  1  0
 35 68  1  0
 35 69  1  0
 35 70  1  0
 36 71  1  0
 36 72  1  0
 36 73  1  0
 37 74  1  0
 37 75  1  0
 37 76  1  0
M  END
> <Name>
CHEMBL4164900

> <IC50 nM>
12.4

> <Molecule_ChEMBL_ID>
CHEMBL4164900

> <Smiles>
CN(C)c1cc(F)c([C@H]2C[C@@]3(C)[C@@H](CC[C@@]3(O)C#CC(C)(C)C)[C@@H]3CCC4=CC(=O)CCC4=C32)c(F)c1

$$$$
CHEMBL4174418
  SciTegic08162514323D

 77 81  0  0  1  0            999 V2000
   -6.6000   -2.1950    0.4220 O   0  0
   -5.4030   -2.0410    0.3590 C   0  0
   -4.5650   -2.1520    1.5610 C   0  0
   -4.7110   -1.7320   -0.9430 C   0  0
   -3.2890   -1.7130    1.5980 C   0  0
   -3.5390   -0.7520   -0.7770 C   0  0
   -2.6560   -1.0080    0.4410 C   0  0
   -2.4860   -1.9360    2.8570 C   0  0
   -1.3600   -0.5900    0.4900 C   0  0
   -1.0040   -2.0980    2.5250 C   0  0
   -0.7090    0.2230   -0.6310 C   0  0  1  0  0  0
   -0.4900   -0.9000    1.7070 C   0  0  1  0  0  0
   -0.9980    1.6720   -0.4550 C   0  0
    0.8030   -0.0430   -0.8300 C   0  0
    0.9670   -1.2010    1.3300 C   0  0  1  0  0  0
   -1.7310    2.1110    0.6620 C   0  0
   -0.5390    2.6020   -1.4020 C   0  0
    1.5920   -0.0820    0.4900 C   0  0  1  0  0  0
    1.9670   -1.3630    2.4790 C   0  0
   -2.0040    3.4810    0.8280 C   0  0
   -0.8130    3.9710   -1.2360 C   0  0
    3.0760   -0.5390    0.4450 C   0  0  2  0  0  0
    1.4960    1.2560    1.2420 C   0  0
    3.3300   -0.9410    1.9140 C   0  0
   -1.5450    4.4120   -0.1190 C   0  0
    3.9370    0.5180    0.0570 O   0  0
    3.3120   -1.6740   -0.4630 C   0  0
   -1.8340    5.8590    0.0570 C   0  0
    3.5040   -2.5920   -1.1950 C   0  0
   -0.5570    6.6620    0.3050 C   0  0
   -2.6640    6.4120   -1.1020 C   0  0
    3.7460   -3.7190   -2.0920 C   0  0
    3.0310   -4.9510   -1.5370 C   0  0
    3.1970   -3.3710   -3.4770 C   0  0
    5.2520   -3.9710   -2.1700 C   0  0
   -4.9960   -2.6070    2.4410 H   0  0
   -5.4320   -1.3360   -1.6600 H   0  0
   -4.3440   -2.6700   -1.3610 H   0  0
   -2.9750   -0.8120   -1.7030 H   0  0
   -3.9240    0.2680   -0.7130 H   0  0
   -2.6290   -1.0880    3.5270 H   0  0
   -2.8380   -2.8220    3.3910 H   0  0
   -0.4380   -2.2050    3.4510 H   0  0
   -0.8650   -3.0230    1.9670 H   0  0
   -1.1470   -0.0350   -1.5880 H   0  0
   -0.5180   -0.0230    2.3560 H   0  0
    0.9000   -0.9980   -1.3440 H   0  0
    1.2460    0.6860   -1.5100 H   0  0
    0.9730   -2.1230    0.7620 H   0  0
   -2.0860    1.4020    1.3950 H   0  0
    0.0230    2.2700   -2.2640 H   0  0
    1.9840   -2.3770    2.8480 H   0  0
    1.7010   -0.7250    3.3110 H   0  0
   -2.5690    3.8130    1.6890 H   0  0
   -0.4570    4.6800   -1.9690 H   0  0
    0.4690    1.5000    1.5120 H   0  0
    1.8830    2.0700    0.6310 H   0  0
    2.0820    1.2230    2.1620 H   0  0
    3.7010   -0.1030    2.4900 H   0  0
    4.0680   -1.7250    2.0180 H   0  0
    3.6050    0.8630   -0.7870 H   0  0
   -2.4340    5.7990    0.9670 H   0  0
    0.0230    6.2560    1.1330 H   0  0
   -0.7930    7.6990    0.5390 H   0  0
    0.0780    6.6580   -0.5820 H   0  0
   -3.5610    5.8130   -1.2560 H   0  0
   -2.9570    7.4450   -0.9060 H   0  0
   -2.0920    6.3990   -2.0270 H   0  0
    3.3910   -5.2150   -0.5430 H   0  0
    3.1890   -5.8130   -2.1880 H   0  0
    1.9570   -4.7770   -1.4690 H   0  0
    3.6780   -2.4840   -3.8930 H   0  0
    2.1250   -3.1780   -3.4300 H   0  0
    3.3570   -4.1930   -4.1720 H   0  0
    5.7890   -3.1020   -2.5470 H   0  0
    5.4670   -4.8110   -2.8320 H   0  0
    5.6520   -4.2110   -1.1860 H   0  0
  1  2  2  0
  2  3  1  0
  2  4  1  0
  3  5  2  0
  4  6  1  0
  5  7  1  0
  5  8  1  0
  7  9  2  0
  8 10  1  0
  9 11  1  0
  9 12  1  0
 11 13  1  0
 11 14  1  0
 12 15  1  0
 13 16  2  0
 13 17  1  0
 14 18  1  0
 15 19  1  0
 16 20  1  0
 17 21  2  0
 18 22  1  0
 18 23  1  0
 19 24  1  0
 20 25  2  0
 22 26  1  0
 22 27  1  0
 25 28  1  0
 27 29  3  0
 28 30  1  0
 28 31  1  0
 29 32  1  0
 32 33  1  0
 32 34  1  0
 32 35  1  0
  6  7  1  0
 12 10  1  0
 15 18  1  0
 21 25  1  0
 22 24  1  0
  3 36  1  0
  4 37  1  0
  4 38  1  0
  6 39  1  0
  6 40  1  0
  8 41  1  0
  8 42  1  0
 10 43  1  0
 10 44  1  0
 11 45  1  0
 12 46  1  0
 14 47  1  0
 14 48  1  0
 15 49  1  0
 16 50  1  0
 17 51  1  0
 19 52  1  0
 19 53  1  0
 20 54  1  0
 21 55  1  0
 23 56  1  0
 23 57  1  0
 23 58  1  0
 24 59  1  0
 24 60  1  0
 26 61  1  0
 28 62  1  0
 30 63  1  0
 30 64  1  0
 30 65  1  0
 31 66  1  0
 31 67  1  0
 31 68  1  0
 33 69  1  0
 33 70  1  0
 33 71  1  0
 34 72  1  0
 34 73  1  0
 34 74  1  0
 35 75  1  0
 35 76  1  0
 35 77  1  0
M  END
> <Name>
CHEMBL4174418

> <IC50 nM>
16

> <Molecule_ChEMBL_ID>
CHEMBL4174418

> <Smiles>
CC(C)c1ccc([C@H]2C[C@@]3(C)[C@@H](CC[C@@]3(O)C#CC(C)(C)C)[C@@H]3CCC4=CC(=O)CCC4=C32)cc1

$$$$
CHEMBL3263752
  SciTegic08162514323D

 54 57  0  0  1  0            999 V2000
   -2.8690   -0.1250    6.9880 O   0  0
   -3.2680   -0.7110    6.0100 C   0  0
   -4.3850   -1.4340    5.9830 O   0  0
   -2.5080   -0.6640    4.7230 C   0  0
   -1.3050    0.0680    4.6230 C   0  0
   -2.9920   -1.3560    3.5980 C   0  0
   -0.8360    0.7230    5.6660 O   0  0
   -0.6070    0.1150    3.4490 N   0  0
   -2.2640   -1.2970    2.3980 C   0  0
    0.3890    1.4260    5.5180 C   0  0
   -1.0680   -0.5530    2.3500 C   0  0
   -0.2870   -0.4840    1.0800 C   0  0
   -0.5980   -1.0590   -0.0270 N   0  0
    1.0020    0.2810    0.9140 C   0  0
    0.1970   -0.8590   -0.9320 N   0  0
    1.3220   -0.0120   -0.5450 C   0  0  1  0  0  0
    0.0450   -1.3930   -2.1860 C   0  0
    1.4140    1.2730   -1.3610 C   0  0
    1.1390   -1.4450   -3.0680 C   0  0
   -1.2150   -1.8930   -2.5940 C   0  0
    2.5160    2.1930   -0.8460 C   0  0
    0.1450    2.1250   -1.2720 C   0  0
    0.9940   -1.9880   -4.3590 C   0  0
   -1.3650   -2.4360   -3.8770 C   0  0
    2.1090    3.5230   -1.4650 C   0  0
    0.6190    3.5720   -1.1470 C   0  0
   -0.2750   -2.4880   -4.7620 C   0  0
    2.1700   -2.0290   -5.2720 C   0  0
   -0.4340   -3.0450   -6.0760 C   0  0
   -0.5620   -3.4960   -7.1390 N   0  0
   -4.9220   -1.5040    6.7810 H   0  0
   -3.9100   -1.9240    3.6480 H   0  0
   -2.6230   -1.8220    1.5250 H   0  0
    0.5860    1.9650    6.4450 H   0  0
    1.1520    0.7150    5.2010 H   0  0
    0.2660    2.1600    4.7230 H   0  0
    0.8480    1.3320    1.1170 H   0  0
    1.7620   -0.0980    1.5820 H   0  0
    2.2420   -0.5720   -0.6250 H   0  0
    1.6110    1.0290   -2.3970 H   0  0
    2.1110   -1.0650   -2.7680 H   0  0
   -2.0570   -1.8590   -1.9300 H   0  0
    3.5000    1.8770   -1.1620 H   0  0
    2.5120    2.2560    0.2340 H   0  0
   -0.4610    1.8610   -0.4160 H   0  0
   -0.4670    1.9840   -2.1500 H   0  0
   -2.3280   -2.8130   -4.1720 H   0  0
    2.2750    3.5160   -2.5330 H   0  0
    2.6490    4.3590   -1.0450 H   0  0
    0.0860    4.2380   -1.8090 H   0  0
    0.4690    3.9260   -0.1370 H   0  0
    1.9630   -2.4690   -6.2480 H   0  0
    2.9690   -2.6090   -4.8090 H   0  0
    2.5410   -1.0180   -5.4320 H   0  0
  1  2  2  0
  2  3  1  0
  2  4  1  0
  4  5  2  0
  4  6  1  0
  5  7  1  0
  5  8  1  0
  6  9  2  0
  7 10  1  0
  8 11  2  0
 11 12  1  0
 12 13  2  0
 12 14  1  0
 13 15  1  0
 14 16  1  0
 15 17  1  0
 16 18  1  0
 17 19  2  0
 17 20  1  0
 18 21  1  0
 18 22  1  0
 19 23  1  0
 20 24  2  0
 21 25  1  0
 22 26  1  0
 23 27  2  0
 23 28  1  0
 27 29  1  0
 29 30  3  0
  9 11  1  0
 15 16  1  0
 24 27  1  0
 25 26  1  0
  3 31  1  0
  6 32  1  0
  9 33  1  0
 10 34  1  0
 10 35  1  0
 10 36  1  0
 14 37  1  0
 14 38  1  0
 16 39  1  0
 18 40  1  0
 19 41  1  0
 20 42  1  0
 21 43  1  0
 21 44  1  0
 22 45  1  0
 22 46  1  0
 24 47  1  0
 25 48  1  0
 25 49  1  0
 26 50  1  0
 26 51  1  0
 28 52  1  0
 28 53  1  0
 28 54  1  0
M  END
> <Name>
CHEMBL3263752

> <IC50 nM>
10000

> <Molecule_ChEMBL_ID>
CHEMBL3263752

> <Smiles>
COc1nc(C2=NN(c3ccc(C#N)c(C)c3)[C@@H](C3CCCC3)C2)ccc1C(=O)O

$$$$
CHEMBL3263763
  SciTegic08162514323D

 54 57  0  0  1  0            999 V2000
   -2.7170   -0.1130    6.8400 O   0  0
   -3.1230   -0.6990    5.8630 C   0  0
   -4.2830   -1.4160    5.9200 N   0  0
   -2.3690   -0.6520    4.5720 C   0  0
   -1.1640    0.0760    4.4670 C   0  0
   -2.8610   -1.3420    3.4490 C   0  0
   -0.6900    0.7290    5.5080 O   0  0
   -0.4730    0.1210    3.2890 N   0  0
   -2.1390   -1.2870    2.2460 C   0  0
    0.5390    1.4260    5.3550 C   0  0
   -0.9410   -0.5450    2.1930 C   0  0
   -0.1660   -0.4800    0.9180 C   0  0
   -0.4830   -1.0530   -0.1880 N   0  0
    1.1230    0.2830    0.7460 C   0  0
    0.3090   -0.8550   -1.0960 N   0  0
    1.4350   -0.0100   -0.7150 C   0  0  1  0  0  0
    0.1460   -1.3870   -2.3480 C   0  0
    1.5290    1.2730   -1.5290 C   0  0
    1.2270   -1.3950   -3.1900 N   0  0
   -1.1040   -1.9100   -2.7520 C   0  0
    2.6310    2.1950   -1.0140 C   0  0
    0.2600    2.1250   -1.4400 C   0  0
    1.1070   -1.9200   -4.4530 C   0  0
   -1.2460   -2.4490   -4.0370 C   0  0
    2.2250    3.5250   -1.6330 C   0  0
    0.7340    3.5740   -1.3170 C   0  0
   -0.1350   -2.4570   -4.8970 C   0  0
    2.3110   -1.9060   -5.3300 C   0  0
   -0.2320   -3.0020   -6.2250 C   0  0
   -0.3150   -3.4410   -7.2970 N   0  0
   -4.8240   -1.4770    6.7600 H   0  0
   -4.6170   -1.8980    5.1110 H   0  0
   -3.7810   -1.9060    3.5040 H   0  0
   -2.5040   -1.8110    1.3750 H   0  0
    0.7420    1.9650    6.2790 H   0  0
    1.2990    0.7130    5.0350 H   0  0
    0.4160    2.1620    4.5610 H   0  0
    0.9750    1.3340    0.9510 H   0  0
    1.8870   -0.1000    1.4100 H   0  0
    2.3550   -0.5740   -0.7990 H   0  0
    1.7270    1.0310   -2.5650 H   0  0
   -1.9430   -1.8950   -2.0800 H   0  0
    3.6150    1.8770   -1.3300 H   0  0
    2.6250    2.2560    0.0660 H   0  0
   -0.3460    1.8610   -0.5840 H   0  0
   -0.3540    1.9860   -2.3200 H   0  0
   -2.1880   -2.8460   -4.3500 H   0  0
    2.3890    3.5160   -2.7010 H   0  0
    2.7640    4.3610   -1.2130 H   0  0
    0.2010    4.2400   -1.9790 H   0  0
    0.5840    3.9280   -0.3050 H   0  0
    3.1950   -1.4650   -4.8710 H   0  0
    2.0920   -1.3440   -6.2380 H   0  0
    2.5590   -2.9260   -5.6230 H   0  0
  1  2  2  0
  2  3  1  0
  2  4  1  0
  4  5  2  0
  4  6  1  0
  5  7  1  0
  5  8  1  0
  6  9  2  0
  7 10  1  0
  8 11  2  0
 11 12  1  0
 12 13  2  0
 12 14  1  0
 13 15  1  0
 14 16  1  0
 15 17  1  0
 16 18  1  0
 17 19  2  0
 17 20  1  0
 18 21  1  0
 18 22  1  0
 19 23  1  0
 20 24  2  0
 21 25  1  0
 22 26  1  0
 23 27  2  0
 23 28  1  0
 27 29  1  0
 29 30  3  0
  9 11  1  0
 15 16  1  0
 24 27  1  0
 25 26  1  0
  3 31  1  0
  3 32  1  0
  6 33  1  0
  9 34  1  0
 10 35  1  0
 10 36  1  0
 10 37  1  0
 14 38  1  0
 14 39  1  0
 16 40  1  0
 18 41  1  0
 20 42  1  0
 21 43  1  0
 21 44  1  0
 22 45  1  0
 22 46  1  0
 24 47  1  0
 25 48  1  0
 25 49  1  0
 26 50  1  0
 26 51  1  0
 28 52  1  0
 28 53  1  0
 28 54  1  0
M  END
> <Name>
CHEMBL3263763

> <IC50 nM>
4800

> <Molecule_ChEMBL_ID>
CHEMBL3263763

> <Smiles>
COc1nc(C2=NN(c3ccc(C#N)c(C)n3)[C@@H](C3CCCC3)C2)ccc1C(N)=O

$$$$
CHEMBL3326454
  SciTegic08162514323D

 37 39  0  0  1  0            999 V2000
    3.8050   -3.6780   -1.5100 Cl  0  0
    3.2600   -2.3910   -0.4780 C   0  0
    4.1230   -1.8030    0.4860 C   0  0
    1.9340   -1.9140   -0.5940 C   0  0
    5.4850   -2.2640    0.6370 C   0  0
    3.6640   -0.7620    1.3130 C   0  0
    1.4830   -0.8670    0.2380 C   0  0
    0.9980   -2.5040   -1.5940 C   0  0
    6.5760   -2.6330    0.7600 N   0  0
    2.3480   -0.2990    1.1860 C   0  0
    0.0840   -0.3530    0.1290 C   0  0
   -0.9610   -1.0680   -0.1110 N   0  0
   -0.3220    1.1020    0.2990 C   0  0  1  0  0  0
   -1.9690   -0.3870   -0.1680 N   0  0
    0.4490    1.9790   -0.4980 O   0  0
   -1.7580    1.0290   -0.1990 C   0  0  1  0  0  0
   -3.3590   -0.7870   -0.1270 C   0  0
    0.0650    3.3300   -0.3690 C   0  0
   -2.9650    1.5220    0.6040 C   0  0  2  0  0  0
   -4.0780    0.5550    0.1060 C   0  0
   -3.2710    2.8650    0.2970 O   0  0
    4.3170   -0.3120    2.0450 H   0  0
    0.3420   -1.7790   -2.0780 H   0  0
    0.3690   -3.2500   -1.1070 H   0  0
    1.5700   -3.0080   -2.3730 H   0  0
    2.0100    0.5000    1.8260 H   0  0
   -0.2600    1.3990    1.3380 H   0  0
   -1.8420    1.3460   -1.2340 H   0  0
   -3.6580   -1.2640   -1.0490 H   0  0
   -3.5250   -1.4690    0.6950 H   0  0
    0.8480    3.9470   -0.8080 H   0  0
   -0.9350    3.4380   -0.7870 H   0  0
    0.0100    3.5670    0.6940 H   0  0
   -2.8070    1.4240    1.6700 H   0  0
   -4.8930    0.4690    0.8090 H   0  0
   -4.4920    0.9000   -0.8340 H   0  0
   -2.6440    3.4200    0.7850 H   0  0
  1  2  1  0
  2  3  2  0
  2  4  1  0
  3  5  1  0
  3  6  1  0
  4  7  2  0
  4  8  1  0
  5  9  3  0
  6 10  2  0
  7 11  1  0
 11 12  2  0
 11 13  1  0
 12 14  1  0
 13 15  1  0
 13 16  1  0
 14 17  1  0
 15 18  1  0
 16 19  1  0
 17 20  1  0
 19 21  1  0
  7 10  1  0
 16 14  1  0
 19 20  1  0
  6 22  1  0
  8 23  1  0
  8 24  1  0
  8 25  1  0
 10 26  1  0
 13 27  1  0
 16 28  1  0
 17 29  1  0
 17 30  1  0
 18 31  1  0
 18 32  1  0
 18 33  1  0
 19 34  1  0
 20 35  1  0
 20 36  1  0
 21 37  1  0
M  END
> <Name>
CHEMBL3326454

> <IC50 nM>
1000

> <Molecule_ChEMBL_ID>
CHEMBL3326454

> <Smiles>
CO[C@@H]1C(c2ccc(C#N)c(Cl)c2C)=NN2CC[C@H](O)[C@@H]12

$$$$
CHEMBL1254419
  SciTegic08162514323D

 52 55  0  0  1  0            999 V2000
    3.8690   -0.6450   -0.8610 F   0  0
    2.7420   -1.3400   -1.2110 C   0  0
    2.5020   -1.1800   -2.5510 F   0  0
    2.9220   -2.6720   -0.9360 F   0  0
    1.5490   -0.8120   -0.4120 C   0  0  1  0  0  0
    0.3830   -1.4410   -0.8930 O   0  0
    1.6680   -1.1000    1.0840 C   0  0
    1.4470    0.6820   -0.7190 C   0  0
    1.1040   -2.4630    1.4260 C   0  0
    0.0000    1.1660   -0.8190 C   0  0
    1.9000   -3.6350    1.5140 N   0  0
   -0.2340   -2.8090    1.7070 C   0  0
   -0.0800    2.6350   -0.8300 C   0  0
   -0.7480    0.5530   -2.0020 C   0  0
   -0.7620    1.0230    0.5000 C   0  0
    1.0430   -4.6700    1.8440 C   0  0
   -0.2170   -4.1370    1.9490 C   0  0
   -1.3520    3.2600   -0.9440 C   0  0
    1.1090    3.3930   -0.7270 C   0  0
    1.2150   -6.0490    2.0740 C   0  0
   -1.3320   -4.9590    2.2830 C   0  0
   -2.5610    2.7050   -1.0450 O   0  0
   -1.4060    4.6620   -0.9570 C   0  0
    1.0390    4.7990   -0.7360 C   0  0
    0.1820   -6.9020    2.4000 N   0  0
   -1.0920   -6.3500    2.5040 C   0  0
   -3.5800    3.7170   -1.1270 C   0  0
   -0.2170    5.4280   -0.8520 C   0  0
   -2.8460    5.0900   -1.0900 C   0  0
    0.6150   -2.3630   -1.0840 H   0  0
    1.1500   -0.3360    1.6660 H   0  0
    2.7070   -1.0470    1.4060 H   0  0
    2.0000    1.2660    0.0170 H   0  0
    1.9980    0.9280   -1.6270 H   0  0
    2.8790   -3.6990    1.3630 H   0  0
   -1.0880   -2.1450    1.7240 H   0  0
   -1.3010    1.3050   -2.5670 H   0  0
   -1.4610   -0.1970   -1.6600 H   0  0
   -0.0530    0.0660   -2.6860 H   0  0
   -1.7990    1.3320    0.3810 H   0  0
   -0.7360   -0.0100    0.8490 H   0  0
   -0.3140    1.6470    1.2730 H   0  0
    2.0660    2.9000   -0.6430 H   0  0
    2.2090   -6.4650    1.9900 H   0  0
   -2.3280   -4.5510    2.3670 H   0  0
    1.9400    5.3890   -0.6580 H   0  0
   -1.9240   -6.9920    2.7580 H   0  0
   -4.2540    3.5980   -0.2910 H   0  0
   -4.1390    3.5760   -2.0410 H   0  0
   -0.2750    6.5060   -0.8600 H   0  0
   -2.9920    5.6510   -2.0020 H   0  0
   -3.1500    5.6920   -0.2480 H   0  0
  1  2  1  0
  2  3  1  0
  2  4  1  0
  2  5  1  0
  5  6  1  0
  5  7  1  0
  5  8  1  0
  7  9  1  0
  8 10  1  0
  9 11  1  0
  9 12  2  0
 10 13  1  0
 10 14  1  0
 10 15  1  0
 11 16  1  0
 12 17  1  0
 13 18  2  0
 13 19  1  0
 16 20  1  0
 17 21  1  0
 18 22  1  0
 18 23  1  0
 19 24  2  0
 20 25  2  0
 21 26  2  0
 22 27  1  0
 23 28  2  0
 23 29  1  0
 16 17  2  0
 24 28  1  0
 25 26  1  0
 27 29  1  0
  6 30  1  0
  7 31  1  0
  7 32  1  0
  8 33  1  0
  8 34  1  0
 11 35  1  0
 12 36  1  0
 14 37  1  0
 14 38  1  0
 14 39  1  0
 15 40  1  0
 15 41  1  0
 15 42  1  0
 19 43  1  0
 20 44  1  0
 21 45  1  0
 24 46  1  0
 26 47  1  0
 27 48  1  0
 27 49  1  0
 28 50  1  0
 29 51  1  0
 29 52  1  0
M  END
> <Name>
CHEMBL1254419

> <IC50 nM>
4.5

> <Molecule_ChEMBL_ID>
CHEMBL1254419

> <Smiles>
CC(C)(CC(O)(Cc1cc2ccncc2[nH]1)C(F)(F)F)c1cccc2c1OCC2

$$$$
CHEMBL1254494
  SciTegic08162514323D

 52 55  0  0  1  0            999 V2000
    2.6410    5.6520   -0.5840 Cl  0  0
    1.2090    4.7480   -0.8500 C   0  0
    1.2270    3.3420   -0.7520 C   0  0
    0.0000    5.4010   -1.1680 C   0  0
    0.0370    2.6130   -0.9730 C   0  0
   -1.1910    4.6620   -1.3890 C   0  0
   -1.1860    3.2620   -1.2930 C   0  0
    0.0630    1.1450   -0.8690 C   0  0
   -2.5860    5.1190   -1.7340 C   0  0
   -2.3870    2.7360   -1.5310 O   0  0
    1.4650    0.6290   -0.5450 C   0  0
   -0.5390    0.4820   -2.1090 C   0  0
   -0.8770    1.1020    0.3360 C   0  0
   -3.3480    3.7640   -1.8180 C   0  0
    1.4730   -0.8520   -0.1560 C   0  0  1  0  0  0
    0.3420   -1.4650   -0.7320 O   0  0
    2.7230   -1.4610   -0.7910 C   0  0
    1.4140   -1.0640    1.3550 C   0  0
    3.8340   -0.7990   -0.3380 F   0  0
    2.6450   -1.3480   -2.1540 F   0  0
    2.8090   -2.7850   -0.4470 F   0  0
    0.8610   -2.4320    1.6970 C   0  0
    1.6800   -3.5370    2.0370 N   0  0
   -0.4860   -2.8440    1.7380 C   0  0
    0.8280   -4.6000    2.2830 C   0  0
   -0.4530   -4.1470    2.0920 C   0  0
    1.0180   -5.9450    2.6580 C   0  0
   -1.5700   -5.0120    2.2680 C   0  0
   -0.0180   -6.8360    2.8480 N   0  0
   -1.3110   -6.3630    2.6500 C   0  0
    2.1410    2.8180   -0.5100 H   0  0
   -0.0330    6.4790   -1.2460 H   0  0
   -2.5940    5.6510   -2.6760 H   0  0
   -2.9820    5.7620   -0.9610 H   0  0
    1.9280    1.2340    0.2340 H   0  0
    2.1450    0.8130   -1.3770 H   0  0
   -0.9800    1.2150   -2.7870 H   0  0
   -1.3180   -0.2250   -1.8300 H   0  0
    0.2250   -0.0640   -2.6620 H   0  0
   -1.8790    1.4260    0.0570 H   0  0
   -0.9320    0.0920    0.7440 H   0  0
   -0.5210    1.7620    1.1270 H   0  0
   -4.1480    3.7050   -1.0960 H   0  0
   -3.7600    3.5920   -2.8030 H   0  0
    0.5760   -2.3890   -0.9080 H   0  0
    0.8010   -0.2970    1.8300 H   0  0
    2.4020   -0.9510    1.7990 H   0  0
    2.6720   -3.5490    2.0900 H   0  0
   -1.3590   -2.2380    1.5290 H   0  0
    2.0270   -6.2990    2.8070 H   0  0
   -2.5820   -4.6660    2.1190 H   0  0
   -2.1430   -7.0390    2.7910 H   0  0
  1  2  1  0
  2  3  2  0
  2  4  1  0
  3  5  1  0
  4  6  2  0
  5  7  2  0
  5  8  1  0
  6  9  1  0
  7 10  1  0
  8 11  1  0
  8 12  1  0
  8 13  1  0
  9 14  1  0
 11 15  1  0
 15 16  1  0
 15 17  1  0
 15 18  1  0
 17 19  1  0
 17 20  1  0
 17 21  1  0
 18 22  1  0
 22 23  1  0
 22 24  2  0
 23 25  1  0
 24 26  1  0
 25 27  1  0
 26 28  1  0
 27 29  2  0
 28 30  2  0
  6  7  1  0
 10 14  1  0
 25 26  2  0
 29 30  1  0
  3 31  1  0
  4 32  1  0
  9 33  1  0
  9 34  1  0
 11 35  1  0
 11 36  1  0
 12 37  1  0
 12 38  1  0
 12 39  1  0
 13 40  1  0
 13 41  1  0
 13 42  1  0
 14 43  1  0
 14 44  1  0
 16 45  1  0
 18 46  1  0
 18 47  1  0
 23 48  1  0
 24 49  1  0
 27 50  1  0
 28 51  1  0
 30 52  1  0
M  END
> <Name>
CHEMBL1254494

> <IC50 nM>
17

> <Molecule_ChEMBL_ID>
CHEMBL1254494

> <Smiles>
CC(C)(CC(O)(Cc1cc2ccncc2[nH]1)C(F)(F)F)c1cc(Cl)cc2c1OCC2

$$$$
CHEMBL245192
  SciTegic08162514323D

 49 51  0  0  1  0            999 V2000
    1.3360    0.6020   -1.1880 S   0  0
    1.2170   -0.2070   -2.3890 O   0  0
    0.6150    1.8590   -1.2700 O   0  0
    0.5680   -0.3090    0.0820 N   0  0
    3.0100    0.9490   -0.9300 C   0  0
   -0.8650   -0.5310   -0.0120 C   0  0  2  0  0  0
    3.8870    1.0310   -2.0270 C   0  0
    3.4940    1.1480    0.3770 C   0  0
   -1.4140   -1.0470    1.3200 C   0  0
   -1.1890   -1.4590   -1.1820 C   0  0
    5.2480    1.3130   -1.8170 C   0  0
    3.3830    0.8200   -3.4100 C   0  0
    4.8560    1.4300    0.5840 C   0  0
    2.5720    1.0630    1.5410 C   0  0
   -2.9280   -1.0760    1.3140 C   0  0
    5.7330    1.5140   -0.5120 C   0  0
   -3.7290    0.0900    1.2400 N   0  0
   -3.7790   -2.1950    1.3790 C   0  0
    7.1720    1.8110   -0.2910 C   0  0
   -5.0490   -0.3240    1.2600 C   0  0
   -5.0330   -1.6930    1.3440 C   0  0
   -6.2640    0.3980    1.2090 C   0  0
   -6.2320   -2.4430    1.3830 C   0  0
   -7.4820   -0.3260    1.2480 C   0  0
   -7.4690   -1.7440    1.3340 C   0  0
    1.0310   -1.2230    0.1760 H   0  0
   -1.2250    0.4790   -0.2090 H   0  0
   -1.0640   -0.4280    2.1460 H   0  0
   -1.0310   -2.0470    1.5330 H   0  0
   -0.9610   -0.9750   -2.1310 H   0  0
   -0.6190   -2.3850   -1.1090 H   0  0
   -2.2480   -1.7190   -1.1880 H   0  0
    5.9240    1.3750   -2.6580 H   0  0
    2.4510    1.3420   -3.6330 H   0  0
    3.2190   -0.2440   -3.5800 H   0  0
    4.1330    1.1580   -4.1270 H   0  0
    5.2290    1.5840    1.5860 H   0  0
    1.6110    1.5570    1.3890 H   0  0
    3.0450    1.5140    2.4120 H   0  0
    2.3750    0.0160    1.7710 H   0  0
   -3.4020    1.0270    1.1850 H   0  0
   -3.4840   -3.2340    1.4450 H   0  0
    7.4450    1.9490    0.7560 H   0  0
    7.4420    2.7210   -0.8280 H   0  0
    7.7780    0.9960   -0.6900 H   0  0
   -6.2640    1.4770    1.1410 H   0  0
   -6.2190   -3.5220    1.4490 H   0  0
   -8.4240    0.2030    1.2110 H   0  0
   -8.3990   -2.2930    1.3650 H   0  0
  1  2  2  0
  1  3  2  0
  1  4  1  0
  1  5  1  0
  4  6  1  0
  5  7  2  0
  5  8  1  0
  6  9  1  0
  6 10  1  0
  7 11  1  0
  7 12  1  0
  8 13  2  0
  8 14  1  0
  9 15  1  0
 11 16  2  0
 15 17  1  0
 15 18  2  0
 16 19  1  0
 17 20  1  0
 18 21  1  0
 20 22  1  0
 21 23  1  0
 22 24  2  0
 23 25  2  0
 13 16  1  0
 20 21  2  0
 24 25  1  0
  4 26  1  0
  6 27  1  0
  9 28  1  0
  9 29  1  0
 10 30  1  0
 10 31  1  0
 10 32  1  0
 11 33  1  0
 12 34  1  0
 12 35  1  0
 12 36  1  0
 13 37  1  0
 14 38  1  0
 14 39  1  0
 14 40  1  0
 17 41  1  0
 18 42  1  0
 19 43  1  0
 19 44  1  0
 19 45  1  0
 22 46  1  0
 23 47  1  0
 24 48  1  0
 25 49  1  0
M  END
> <Name>
CHEMBL245192

> <IC50 nM>
2000

> <Molecule_ChEMBL_ID>
CHEMBL245192

> <Smiles>
Cc1cc(C)c(S(=O)(=O)NC(C)Cc2cc3ccccc3[nH]2)c(C)c1

$$$$
CHEMBL243691
  SciTegic08162514323D

 50 52  0  0  1  0            999 V2000
    1.1210   -1.2600    1.1720 S   0  0
    1.6860   -2.5900    1.0210 O   0  0
    1.9400   -0.3810    1.9900 O   0  0
    1.1110   -0.5590   -0.4200 N   0  0
   -0.4320   -1.4080    1.9180 C   0  0
    2.3440   -0.5880   -1.1880 C   0  0  2  0  0  0
   -0.9300   -0.3630    2.7170 C   0  0
   -1.1930   -2.5760    1.7270 C   0  0
    3.4140    0.2720   -0.5140 C   0  0
    2.0840   -0.1800   -2.6370 C   0  0
   -2.1930   -0.4860    3.3220 C   0  0
   -0.1290    0.8730    2.9240 C   0  0
   -2.4570   -2.6950    2.3340 C   0  0
   -0.6720   -3.6840    0.8850 C   0  0
    4.1430   -0.5470    0.3730 O   0  0
    1.6520    1.2720   -2.7290 C   0  0
   -2.9570   -1.6500    3.1330 C   0  0
    0.3930    1.7620   -2.7640 C   0  0
    2.4980    2.3970   -2.7930 C   0  0
   -4.2910   -1.7790    3.7730 C   0  0
    0.3670    3.1310   -2.8480 C   0  0
   -0.8050    1.0080   -2.7250 C   0  0
    1.6880    3.5550   -2.8670 N   0  0
   -0.8500    3.8500   -2.8990 C   0  0
   -2.0430    1.6990   -2.7720 C   0  0
   -2.0660    3.1190   -2.8590 C   0  0
    0.7890    0.4180   -0.3630 H   0  0
    2.6060   -1.6440   -1.1270 H   0  0
    2.9550    1.0740    0.0620 H   0  0
    4.1080    0.6720   -1.2540 H   0  0
    1.3180   -0.8120   -3.0860 H   0  0
    2.9730   -0.3320   -3.2460 H   0  0
   -2.5760    0.3160    3.9380 H   0  0
    0.3150    1.2770    2.0140 H   0  0
    0.6800    0.6700    3.6270 H   0  0
   -0.7620    1.6470    3.3590 H   0  0
   -3.0430   -3.5920    2.1870 H   0  0
   -1.4220   -4.4260    0.6050 H   0  0
    0.1250   -4.2010    1.4180 H   0  0
   -0.2500   -3.2750   -0.0330 H   0  0
    4.6700   -1.1560   -0.1660 H   0  0
    3.5800    2.4140   -2.7890 H   0  0
   -4.7520   -2.7190    3.4690 H   0  0
   -4.1840   -1.6930    4.8560 H   0  0
   -4.9360   -0.9670    3.4380 H   0  0
   -0.7870   -0.0720   -2.6580 H   0  0
    2.0080    4.4940   -2.9240 H   0  0
   -0.8590    4.9280   -2.9650 H   0  0
   -2.9710    1.1470   -2.7420 H   0  0
   -3.0100    3.6410   -2.8950 H   0  0
  1  2  2  0
  1  3  2  0
  1  4  1  0
  1  5  1  0
  6  4  1  0
  5  7  2  0
  5  8  1  0
  6  9  1  0
  6 10  1  0
  7 11  1  0
  7 12  1  0
  8 13  2  0
  8 14  1  0
  9 15  1  0
 10 16  1  0
 11 17  2  0
 16 18  1  0
 16 19  2  0
 17 20  1  0
 18 21  1  0
 18 22  2  0
 19 23  1  0
 21 24  2  0
 22 25  1  0
 24 26  1  0
 13 17  1  0
 21 23  1  0
 25 26  2  0
  4 27  1  0
  6 28  1  0
  9 29  1  0
  9 30  1  0
 10 31  1  0
 10 32  1  0
 11 33  1  0
 12 34  1  0
 12 35  1  0
 12 36  1  0
 13 37  1  0
 14 38  1  0
 14 39  1  0
 14 40  1  0
 15 41  1  0
 19 42  1  0
 20 43  1  0
 20 44  1  0
 20 45  1  0
 22 46  1  0
 23 47  1  0
 24 48  1  0
 25 49  1  0
 26 50  1  0
M  END
> <Name>
CHEMBL243691

> <IC50 nM>
2000

> <Molecule_ChEMBL_ID>
CHEMBL243691

> <Smiles>
Cc1cc(C)c(S(=O)(=O)NC(CO)Cc2c[nH]c3ccccc23)c(C)c1

$$$$
CHEMBL388462
  SciTegic08162514323D

 43 45  0  0  1  0            999 V2000
   -0.2990   -2.7970    0.3500 S   0  0
   -1.6780   -2.4060    0.5920 O   0  0
   -0.1520   -4.2070    0.0290 O   0  0
    0.2050   -1.9280   -1.0700 N   0  0
    0.6150   -2.4670    1.7740 C   0  0
    0.0140   -0.4860   -1.0900 C   0  0  2  0  0  0
   -0.0450   -2.1520    2.9750 C   0  0
    2.0200   -2.5120    1.7310 C   0  0
    0.1970    0.0570   -2.5080 C   0  0
    0.9340    0.1900   -0.0740 C   0  0
    0.7010   -1.8830    4.1350 C   0  0
    2.7660   -2.2400    2.8910 C   0  0
   -0.2320    1.5080   -2.6000 C   0  0
    2.1070   -1.9280    4.0940 C   0  0
   -1.4920    1.9980   -2.6350 C   0  0
    0.6110    2.6310   -2.6640 C   0  0
    2.8970   -1.6410    5.3210 C   0  0
   -1.5180    3.3670   -2.7190 C   0  0
   -2.6910    1.2420   -2.5960 C   0  0
   -0.1990    3.7910   -2.7380 N   0  0
   -2.7360    4.0860   -2.7690 C   0  0
   -3.9300    1.9360   -2.6420 C   0  0
   -3.9510    3.3540   -2.7300 C   0  0
    1.1970   -2.1230   -1.2580 H   0  0
   -1.0290   -0.4080   -0.7810 H   0  0
   -1.1230   -2.1190    3.0060 H   0  0
    2.5250   -2.7520    0.8090 H   0  0
   -0.3690   -0.5350   -3.2250 H   0  0
    1.2360   -0.0330   -2.8240 H   0  0
    0.6760   -0.1130    0.9400 H   0  0
    1.9750   -0.0640   -0.2670 H   0  0
    0.8380    1.2750   -0.1330 H   0  0
    0.1890   -1.6430    5.0550 H   0  0
    3.8440   -2.2770    2.8540 H   0  0
    1.6930    2.6500   -2.6600 H   0  0
    3.9750   -1.7010    5.1840 H   0  0
    2.6190   -2.3480    6.1040 H   0  0
    2.6600   -0.6390    5.6800 H   0  0
   -2.6740    0.1640   -2.5290 H   0  0
    0.1230    4.7310   -2.7950 H   0  0
   -2.7460    5.1640   -2.8360 H   0  0
   -4.8560    1.3830   -2.6130 H   0  0
   -4.8970    3.8750   -2.7660 H   0  0
  1  2  2  0
  1  3  2  0
  1  4  1  0
  1  5  1  0
  4  6  1  0
  5  7  2  0
  5  8  1  0
  6  9  1  0
  6 10  1  0
  7 11  1  0
  8 12  2  0
  9 13  1  0
 11 14  2  0
 13 15  1  0
 13 16  2  0
 14 17  1  0
 15 18  1  0
 15 19  2  0
 16 20  1  0
 18 21  2  0
 19 22  1  0
 21 23  1  0
 12 14  1  0
 18 20  1  0
 22 23  2  0
  4 24  1  0
  6 25  1  0
  7 26  1  0
  8 27  1  0
  9 28  1  0
  9 29  1  0
 10 30  1  0
 10 31  1  0
 10 32  1  0
 11 33  1  0
 12 34  1  0
 16 35  1  0
 17 36  1  0
 17 37  1  0
 17 38  1  0
 19 39  1  0
 20 40  1  0
 21 41  1  0
 22 42  1  0
 23 43  1  0
M  END
> <Name>
CHEMBL388462

> <IC50 nM>
5700

> <Molecule_ChEMBL_ID>
CHEMBL388462

> <Smiles>
Cc1ccc(S(=O)(=O)NC(C)Cc2c[nH]c3ccccc23)cc1

$$$$
CHEMBL3358927
  SciTegic08162514323D

 58 60  0  0  1  0            999 V2000
   -0.3030   -2.4490   -3.5840 F   0  0
   -1.4200   -1.8010   -3.2620 C   0  0
   -1.7460   -1.5880   -1.9120 C   0  0
   -2.2730   -1.3300   -4.2730 C   0  0
   -2.9280   -0.9040   -1.5700 C   0  0
   -3.4530   -0.6470   -3.9360 C   0  0
   -3.7830   -0.4320   -2.5860 C   0  0
   -3.2580   -0.6880   -0.1350 C   0  0
   -5.0370    0.2950   -2.2440 C   0  0
   -3.0080    0.8180   -0.1870 C   0  0
   -2.2770   -1.4180    0.7830 C   0  0
   -4.7170   -1.0350    0.1640 C   0  0
   -1.5270    1.1760   -0.0450 C   0  0  1  0  0  0
   -0.7770    0.2640   -0.8100 O   0  0
   -1.2130    2.5880   -0.5390 C   0  0
   -1.0410    1.1020    1.4020 C   0  0
   -1.6740    3.5060    0.3710 F   0  0
   -1.8220    2.7970   -1.7480 F   0  0
    0.1450    2.7300   -0.6800 F   0  0
    0.4690    0.9920    1.4670 C   0  0
    1.3280    2.1190    1.5430 N   0  0
    1.2600   -0.1740    1.4650 C   0  0
    2.6190    1.6250    1.5880 C   0  0
    2.5370    0.2580    1.5390 C   0  0
    3.8950    2.2210    1.6680 C   0  0
    3.7110   -0.5490    1.5660 C   0  0
    5.0690    1.5000    1.6990 N   0  0
    4.9790    0.1110    1.6490 C   0  0
    6.1150   -0.5940    1.6800 N   0  0
    7.3010   -0.1070    0.9570 C   0  0
    6.2030   -1.8570    2.4260 C   0  0
   -1.0880   -1.9530   -1.1350 H   0  0
   -2.0270   -1.4900   -5.3130 H   0  0
   -4.1050   -0.2850   -4.7190 H   0  0
   -5.1210    0.5780   -1.1950 H   0  0
   -5.8970   -0.3300   -2.4900 H   0  0
   -5.1040    1.2030   -2.8420 H   0  0
   -3.4200    1.2460   -1.1020 H   0  0
   -3.6040    1.3340    0.5650 H   0  0
   -1.2480   -1.1110    0.6060 H   0  0
   -2.3360   -2.4960    0.6310 H   0  0
   -2.5080   -1.2170    1.8300 H   0  0
   -5.1880   -1.5650   -0.6640 H   0  0
   -5.2970   -0.1310    0.3540 H   0  0
   -4.7890   -1.6660    1.0490 H   0  0
    0.0200    0.0470   -0.3010 H   0  0
   -1.3650    1.9770    1.9650 H   0  0
   -1.4880    0.2520    1.9160 H   0  0
    1.0550    3.0740    1.5610 H   0  0
    0.9120   -1.1990    1.4160 H   0  0
    3.9570    3.2990    1.7090 H   0  0
    3.6390   -1.6270    1.5240 H   0  0
    7.1470    0.8110    0.3910 H   0  0
    7.6370   -0.8770    0.2620 H   0  0
    8.1060    0.0700    1.6700 H   0  0
    5.3520   -1.9340    3.1020 H   0  0
    6.2780   -2.6860    1.7230 H   0  0
    7.1100   -1.8520    3.0310 H   0  0
  1  2  1  0
  2  3  2  0
  2  4  1  0
  3  5  1  0
  4  6  2  0
  5  7  2  0
  5  8  1  0
  7  9  1  0
  8 10  1  0
  8 11  1  0
  8 12  1  0
 10 13  1  0
 13 14  1  0
 13 15  1  0
 13 16  1  0
 15 17  1  0
 15 18  1  0
 15 19  1  0
 16 20  1  0
 20 21  1  0
 20 22  2  0
 21 23  1  0
 22 24  1  0
 23 25  1  0
 24 26  1  0
 25 27  2  0
 26 28  2  0
 28 29  1  0
 29 30  1  0
 29 31  1  0
  6  7  1  0
 23 24  2  0
 27 28  1  0
  3 32  1  0
  4 33  1  0
  6 34  1  0
  9 35  1  0
  9 36  1  0
  9 37  1  0
 10 38  1  0
 10 39  1  0
 11 40  1  0
 11 41  1  0
 11 42  1  0
 12 43  1  0
 12 44  1  0
 12 45  1  0
 14 46  1  0
 16 47  1  0
 16 48  1  0
 21 49  1  0
 22 50  1  0
 25 51  1  0
 26 52  1  0
 30 53  1  0
 30 54  1  0
 30 55  1  0
 31 56  1  0
 31 57  1  0
 31 58  1  0
M  END
> <Name>
CHEMBL3358927

> <IC50 nM>
10

> <Molecule_ChEMBL_ID>
CHEMBL3358927

> <Smiles>
Cc1ccc(F)cc1C(C)(C)CC(O)(Cc1cc2cc(N(C)C)ncc2[nH]1)C(F)(F)F

$$$$
CHEMBL3358944
  SciTegic08162514323D

 59 61  0  0  1  0            999 V2000
    6.1470   -1.5720    2.2910 S   0  0
    6.2050   -2.3690    1.0780 O   0  0
    6.1390   -2.3750    3.5020 O   0  0
    4.7110   -0.6430    2.2540 C   0  0
    7.5590   -0.4770    2.3320 C   0  0
    4.8050    0.7460    2.3050 N   0  0
    3.4510   -1.3090    2.1720 C   0  0
    3.6250    1.4610    2.2740 C   0  0
    2.2740   -0.5080    2.1450 C   0  0
    2.3540    0.8610    2.1930 C   0  0
    0.9980   -0.9440    2.0700 C   0  0
    1.0590    1.3490    2.1490 N   0  0
    0.2030    0.2190    2.0720 C   0  0
   -1.3070    0.3260    2.0060 C   0  0
   -1.9020   -0.7890    1.1470 C   0  0  2  0  0  0
   -3.2070   -0.4080    0.7740 O   0  0
   -1.9880   -2.1230    1.8890 C   0  0
   -1.0980   -1.0470   -0.1270 C   0  0
   -3.2990   -2.4060    2.1700 F   0  0
   -1.2750   -2.0430    3.0570 F   0  0
   -1.4650   -3.1170    1.1020 F   0  0
   -1.3030    0.0370   -1.1840 C   0  0
   -2.6330   -0.0800   -1.8360 C   0  0
   -1.0640    1.4450   -0.6410 C   0  0
   -0.5230   -0.2380   -2.4710 C   0  0
   -3.1620    0.9940   -2.5760 C   0  0
   -3.3710   -1.2720   -1.7150 C   0  0
   -2.2690    2.4650   -2.7360 S   0  0
   -4.4200    0.8790   -3.1910 C   0  0
   -4.6290   -1.3890   -2.3280 C   0  0
   -2.1250    3.0570   -1.4180 O   0  0
   -2.9710    3.3240   -3.6760 O   0  0
   -0.6440    2.1010   -3.3890 C   0  0
   -5.1540   -0.3150   -3.0660 C   0  0
    7.6330    0.1910    1.4750 H   0  0
    8.4750   -1.0670    2.3770 H   0  0
    7.5140    0.1390    3.2310 H   0  0
    3.3970   -2.3870    2.1330 H   0  0
    3.6860    2.5390    2.3130 H   0  0
    0.6520   -1.9690    2.0220 H   0  0
    0.7810    2.3030    2.1660 H   0  0
   -1.7170    0.2970    3.0160 H   0  0
   -1.5840    1.3050    1.6150 H   0  0
   -3.1990    0.5550    0.6490 H   0  0
   -0.0390   -1.1660    0.1060 H   0  0
   -1.3260   -2.0310   -0.5330 H   0  0
   -0.7270    2.1310   -1.4180 H   0  0
   -0.3070    1.4320    0.1430 H   0  0
   -1.9800    1.8530   -0.2110 H   0  0
   -1.0450    0.1740   -3.3340 H   0  0
    0.4750    0.1970   -2.4160 H   0  0
   -0.4100   -1.3110   -2.6310 H   0  0
   -2.9730   -2.1020   -1.1480 H   0  0
   -4.8260    1.7030   -3.7580 H   0  0
   -5.1930   -2.3050   -2.2320 H   0  0
    0.0370    1.6500   -2.6680 H   0  0
   -0.1850    3.0190   -3.7540 H   0  0
   -0.7360    1.4160   -4.2320 H   0  0
   -6.1210   -0.4040   -3.5370 H   0  0
  1  2  2  0
  1  3  2  0
  1  4  1  0
  1  5  1  0
  4  6  2  0
  4  7  1  0
  6  8  1  0
  7  9  2  0
  8 10  2  0
  9 11  1  0
 10 12  1  0
 11 13  2  0
 13 14  1  0
 14 15  1  0
 15 16  1  0
 15 17  1  0
 15 18  1  0
 17 19  1  0
 17 20  1  0
 17 21  1  0
 18 22  1  0
 22 23  1  0
 22 24  1  0
 22 25  1  0
 23 26  2  0
 23 27  1  0
 26 28  1  0
 26 29  1  0
 27 30  2  0
 28 31  2  0
 28 32  2  0
 28 33  1  0
 29 34  2  0
  9 10  1  0
 12 13  1  0
 30 34  1  0
  5 35  1  0
  5 36  1  0
  5 37  1  0
  7 38  1  0
  8 39  1  0
 11 40  1  0
 12 41  1  0
 14 42  1  0
 14 43  1  0
 16 44  1  0
 18 45  1  0
 18 46  1  0
 24 47  1  0
 24 48  1  0
 24 49  1  0
 25 50  1  0
 25 51  1  0
 25 52  1  0
 27 53  1  0
 29 54  1  0
 30 55  1  0
 33 56  1  0
 33 57  1  0
 33 58  1  0
 34 59  1  0
M  END
> <Name>
CHEMBL3358944

> <IC50 nM>
34

> <Molecule_ChEMBL_ID>
CHEMBL3358944

> <Smiles>
CC(C)(CC(O)(Cc1cc2cc(S(C)(=O)=O)ncc2[nH]1)C(F)(F)F)c1ccccc1S(C)(=O)=O

$$$$
CHEMBL3358952
  SciTegic08162514323D

 60 63  0  0  1  0            999 V2000
    4.9270    0.2370    1.9860 S   0  0
    5.3000   -0.2250    3.3110 O   0  0
    5.0660   -0.7380    0.9180 O   0  0
    3.3750    0.9400    2.0120 C   0  0
    5.7210    1.8080    1.5760 C   0  0
    2.1320    0.2570    2.0200 C   0  0
    3.4200    2.3540    2.0480 C   0  0
    4.8050    2.9520    2.0390 C   0  0
    0.9170    0.9720    2.0560 C   0  0
    2.1100   -1.2140    1.9900 C   0  0
    2.1840    3.0530    2.0860 C   0  0
    0.9430    2.3790    2.0890 C   0  0
    0.6930   -1.7590    2.1720 C   0  0
    3.1040   -1.8120    2.9860 C   0  0
    2.5960   -1.3050    0.5440 C   0  0
   -0.1640   -1.6060    0.9150 C   0  0  1  0  0  0
    0.3520   -0.5340    0.1580 O   0  0
    0.0130   -2.8910    0.1060 C   0  0
   -1.6290   -1.3060    1.2320 C   0  0
    1.1090   -3.5740    0.5680 F   0  0
    0.1940   -2.5780   -1.2160 F   0  0
   -1.1040   -3.6740    0.2420 F   0  0
   -2.3890   -0.9050   -0.0140 C   0  0
   -3.0870   -1.8320   -0.8310 N   0  0
   -2.5420    0.3820   -0.5690 C   0  0
   -3.6520   -1.1030   -1.8630 C   0  0
   -3.3030    0.2110   -1.6710 C   0  0
   -4.4500   -1.4330   -2.9760 C   0  0
   -3.7360    1.2210   -2.5770 C   0  0
   -4.9030   -0.5060   -3.8910 N   0  0
   -4.5420    0.8230   -3.6860 C   0  0
   -5.0810    2.0090   -4.7940 S   0  0
   -3.9160    2.6230   -5.4090 O   0  0
   -5.9160    2.9580   -4.0780 O   0  0
   -6.0600    1.2250   -6.0680 C   0  0
    6.7100    1.8670    2.0060 H   0  0
    5.8340    1.8520    0.5020 H   0  0
    4.8690    3.8100    1.3850 H   0  0
    5.0590    3.2690    3.0410 H   0  0
   -0.0290    0.4500    2.0590 H   0  0
    2.1920    4.1330    2.1120 H   0  0
    0.0200    2.9400    2.1170 H   0  0
    0.2070   -1.2920    3.0290 H   0  0
    0.7190   -2.8000    2.4950 H   0  0
    4.0740   -2.0020    2.5270 H   0  0
    2.7320   -2.7570    3.3820 H   0  0
    3.2600   -1.1370    3.8280 H   0  0
    3.5510   -1.8280    0.4910 H   0  0
    1.8690   -1.8300   -0.0750 H   0  0
    2.7380   -0.3100    0.1210 H   0  0
   -0.1830   -0.4700   -0.6490 H   0  0
   -1.7080   -0.5130    1.9760 H   0  0
   -2.1100   -2.1710    1.6880 H   0  0
   -3.1560   -2.8130   -0.6890 H   0  0
   -2.1320    1.3090   -0.1870 H   0  0
   -4.7230   -2.4680   -3.1250 H   0  0
   -3.4650    2.2570   -2.4340 H   0  0
   -6.4470    1.9110   -6.8220 H   0  0
   -6.9100    0.7170   -5.6120 H   0  0
   -5.4580    0.4740   -6.5790 H   0  0
  1  2  2  0
  1  3  2  0
  1  4  1  0
  1  5  1  0
  4  6  2  0
  4  7  1  0
  5  8  1  0
  6  9  1  0
  6 10  1  0
  7 11  2  0
  9 12  2  0
 10 13  1  0
 10 14  1  0
 10 15  1  0
 13 16  1  0
 16 17  1  0
 16 18  1  0
 16 19  1  0
 18 20  1  0
 18 21  1  0
 18 22  1  0
 19 23  1  0
 23 24  1  0
 23 25  2  0
 24 26  1  0
 25 27  1  0
 26 28  1  0
 27 29  1  0
 28 30  2  0
 29 31  2  0
 31 32  1  0
 32 33  2  0
 32 34  2  0
 32 35  1  0
  7  8  1  0
 11 12  1  0
 26 27  2  0
 30 31  1  0
  5 36  1  0
  5 37  1  0
  8 38  1  0
  8 39  1  0
  9 40  1  0
 11 41  1  0
 12 42  1  0
 13 43  1  0
 13 44  1  0
 14 45  1  0
 14 46  1  0
 14 47  1  0
 15 48  1  0
 15 49  1  0
 15 50  1  0
 17 51  1  0
 19 52  1  0
 19 53  1  0
 24 54  1  0
 25 55  1  0
 28 56  1  0
 29 57  1  0
 35 58  1  0
 35 59  1  0
 35 60  1  0
M  END
> <Name>
CHEMBL3358952

> <IC50 nM>
260

> <Molecule_ChEMBL_ID>
CHEMBL3358952

> <Smiles>
CC(C)(CC(O)(Cc1cc2cc(S(C)(=O)=O)ncc2[nH]1)C(F)(F)F)c1cccc2c1S(=O)(=O)CC2

$$$$
CHEMBL499630
  SciTegic08162514323D

 76 79  0  0  1  0            999 V2000
   -3.5390   -0.3360   -0.5960 F   0  0
   -3.4000    0.4300    0.5450 C   0  0  2  0  0  0
   -4.8540    0.8110    1.0060 C   0  0  2  0  0  0
   -2.4960    1.6290    0.0980 C   0  0  1  0  0  0
   -2.7090   -0.4710    1.6110 C   0  0  2  0  0  0
   -5.6390   -0.4550    1.3630 C   0  0
   -5.5530    1.6700   -0.0430 C   0  0
   -4.8460    1.6370    2.3010 C   0  0
   -2.5180    2.6780    1.0490 O   0  0
   -1.0210    1.2340   -0.1680 C   0  0
   -1.2750   -0.8220    1.1720 C   0  0  1  0  0  0
   -3.5180   -1.7600    1.8630 C   0  0
   -6.8870   -0.6860    0.9020 C   0  0
   -4.9630   -1.4550    2.2810 C   0  0
   -6.7950    1.4100   -0.4900 C   0  0
   -0.4120    0.4340    1.0000 C   0  0  1  0  0  0
   -0.4510   -1.6600    2.1480 C   0  0
   -7.5550    0.2580   -0.0020 C   0  0
    0.9630   -0.2150    0.7560 C   0  0  1  0  0  0
   -0.3260    1.2680    2.2890 C   0  0
    1.0160   -1.3280    1.8220 C   0  0  1  0  0  0
   -8.7030    0.0880   -0.3360 O   0  0
    0.9790   -0.8260   -0.5270 O   0  0
    2.1250    0.7540    0.7810 C   0  0
    1.7320   -0.9240    3.1110 C   0  0
    2.1880   -1.2620   -0.8670 C   0  0
    1.9590    1.9320    0.5680 O   0  0
    3.4960    0.2070    1.0820 C   0  0
    2.7890   -2.1190   -0.2640 O   0  0
    2.7440   -0.6780   -1.9710 N   0  0
    4.1070    0.9900    2.0800 O   0  0
    4.0800   -1.1000   -2.4160 C   0  0
    4.5880   -0.2070   -3.5470 C   0  0
    5.9790   -0.6070   -4.0370 C   0  0
    6.4860    0.2870   -5.1680 C   0  0
    7.8790   -0.1130   -5.6580 C   0  0
   -2.8930    2.0590   -0.8220 H   0  0
   -2.6580    0.0800    2.5530 H   0  0
   -5.0370    2.5290   -0.4470 H   0  0
   -5.8160    1.6190    2.7990 H   0  0
   -4.5980    2.6760    2.0920 H   0  0
   -4.1060    1.2500    3.0000 H   0  0
   -2.7170    3.4940    0.5660 H   0  0
   -0.9900    0.6290   -1.0740 H   0  0
   -0.4160    2.1170   -0.3830 H   0  0
   -1.3220   -1.3610    0.2340 H   0  0
   -3.5230   -2.3810    0.9670 H   0  0
   -3.0450   -2.3570    2.6410 H   0  0
   -7.4120   -1.5820    1.1990 H   0  0
   -5.5310   -2.3870    2.3240 H   0  0
   -4.9650   -1.0510    3.2950 H   0  0
   -7.2360    2.0700   -1.2250 H   0  0
   -0.6620   -2.7130    2.0310 H   0  0
   -0.7090   -1.3960    3.1660 H   0  0
   -1.3070    1.6230    2.6090 H   0  0
    0.3130    2.1390    2.1430 H   0  0
    0.0960    0.6780    3.1020 H   0  0
    1.5180   -2.1950    1.4220 H   0  0
    2.6640   -1.4730    3.2480 H   0  0
    1.1040   -1.1150    3.9810 H   0  0
    1.9730    0.1410    3.1020 H   0  0
    4.1170    0.2520    0.1880 H   0  0
    3.4140   -0.8140    1.4550 H   0  0
    2.2440    0.0310   -2.4690 H   0  0
    4.9840    0.6110    2.2460 H   0  0
    4.7640   -1.0740   -1.5680 H   0  0
    4.0390   -2.1410   -2.7340 H   0  0
    3.8770   -0.1910   -4.3750 H   0  0
    4.5700    0.8420   -3.2480 H   0  0
    6.6900   -0.6210   -3.2090 H   0  0
    5.9960   -1.6540   -4.3360 H   0  0
    5.7770    0.3010   -5.9960 H   0  0
    6.4710    1.3340   -4.8690 H   0  0
    8.2030    0.5330   -6.4730 H   0  0
    8.6040   -0.0550   -4.8460 H   0  0
    7.8770   -1.1390   -6.0270 H   0  0
  2  1  1  0
  2  3  1  0
  2  4  1  0
  2  5  1  0
  3  6  1  0
  3  7  1  0
  3  8  1  0
  4  9  1  0
  4 10  1  0
  5 11  1  0
  5 12  1  0
  6 13  2  0
  6 14  1  0
  7 15  2  0
 10 16  1  0
 11 17  1  0
 13 18  1  0
 16 19  1  0
 16 20  1  0
 17 21  1  0
 18 22  2  0
 19 23  1  0
 19 24  1  0
 21 25  1  0
 23 26  1  0
 24 27  2  0
 24 28  1  0
 26 29  2  0
 26 30  1  0
 28 31  1  0
 30 32  1  0
 32 33  1  0
 33 34  1  0
 34 35  1  0
 35 36  1  0
 11 16  1  0
 12 14  1  0
 15 18  1  0
 19 21  1  0
  4 37  1  0
  5 38  1  0
  7 39  1  0
  8 40  1  0
  8 41  1  0
  8 42  1  0
  9 43  1  0
 10 44  1  0
 10 45  1  0
 11 46  1  0
 12 47  1  0
 12 48  1  0
 13 49  1  0
 14 50  1  0
 14 51  1  0
 15 52  1  0
 17 53  1  0
 17 54  1  0
 20 55  1  0
 20 56  1  0
 20 57  1  0
 21 58  1  0
 25 59  1  0
 25 60  1  0
 25 61  1  0
 28 62  1  0
 28 63  1  0
 30 64  1  0
 31 65  1  0
 32 66  1  0
 32 67  1  0
 33 68  1  0
 33 69  1  0
 34 70  1  0
 34 71  1  0
 35 72  1  0
 35 73  1  0
 36 74  1  0
 36 75  1  0
 36 76  1  0
M  END
> <Name>
CHEMBL499630

> <IC50 nM>
2.1

> <Molecule_ChEMBL_ID>
CHEMBL499630

> <Smiles>
CCCCCNC(=O)O[C@]1(C(=O)CO)[C@@H](C)C[C@H]2[C@@H]3CCC4=CC(=O)C=C[C@]4(C)[C@@]3(F)[C@@H](O)C[C@@]21C

$$$$
CHEMBL3775464
  SciTegic08162514323D

 64 69  0  0  0  0            999 V2000
    6.8520    6.4060    0.5900 F   0  0
    6.0350    5.3610    0.4770 C   0  0
    6.5630    4.0700    0.2580 C   0  0
    4.6430    5.5370    0.5780 C   0  0
    5.7170    2.9390    0.1480 C   0  0
    3.7810    4.4280    0.4320 C   0  0
    6.3810    1.7690    0.0270 O   0  0
    4.2890    3.1170    0.1910 C   0  0
    5.7810    0.5060    0.2910 C   0  0
    3.3010    1.9840   -0.0290 C   0  0
    4.8650    0.1370   -0.8010 C   0  0
    3.6480    0.8480   -0.9550 C   0  0
    2.0940    2.0180    0.6000 C   0  0
    5.1860   -0.9240   -1.6880 C   0  0
    2.7560    0.4760   -1.9980 C   0  0
    1.0470    0.9710    0.5020 C   0  0
    4.2910   -1.2850   -2.7190 C   0  0
    3.0740   -0.5860   -2.8730 C   0  0
    1.4120   -0.3950    0.4940 C   0  0
   -0.3160    1.3380    0.4160 C   0  0
    0.3810   -1.3540    0.4000 C   0  0
   -1.3110    0.3340    0.3260 C   0  0
    0.5660   -2.8110    0.3730 N   0  0
   -0.9840   -1.0530    0.3180 C   0  0
   -0.7460   -3.3520    0.2730 C   0  0
   -1.8460   -2.2910    0.2360 C   0  0
   -0.9450   -4.5430    0.2250 O   0  0
   -2.6410   -2.3870   -1.0800 C   0  0
   -2.7770   -2.4530    1.4530 C   0  0
   -3.9040   -1.5100   -1.0800 C   0  0
   -4.0310   -1.5670    1.3630 C   0  0
   -4.7400   -1.7760    0.0960 N   0  0
   -5.9840   -1.0160    0.0490 C   0  0
   -7.0410   -1.6620    0.9470 C   0  0
   -8.4100   -1.0760    0.7320 C   0  0
   -8.5860   -0.1700   -0.0470 O   0  0
   -9.3810   -1.6310    1.4550 O   0  0
    7.6330    3.9450    0.1820 H   0  0
    4.2310    6.5180    0.7660 H   0  0
    2.7210    4.6190    0.4960 H   0  0
    5.2750    0.5290    1.2580 H   0  0
    6.5880   -0.2250    0.3810 H   0  0
    1.8360    2.8460    1.2440 H   0  0
    6.1150   -1.4650   -1.5760 H   0  0
    1.8220    1.0040   -2.1410 H   0  0
    4.5390   -2.0940   -3.3910 H   0  0
    2.3890   -0.8630   -3.6580 H   0  0
    2.4470   -0.6970    0.5590 H   0  0
   -0.6070    2.3790    0.4200 H   0  0
   -2.3420    0.6420    0.2640 H   0  0
    1.4530   -3.2740    0.4160 H   0  0
   -2.9510   -3.4220   -1.2340 H   0  0
   -2.0140   -2.1370   -1.9380 H   0  0
   -2.2460   -2.2540    2.3850 H   0  0
   -3.1040   -3.4920    1.5160 H   0  0
   -3.6470   -0.4510   -1.1190 H   0  0
   -4.4810   -1.7150   -1.9840 H   0  0
   -4.6970   -1.8110    2.1930 H   0  0
   -3.7750   -0.5140    1.4750 H   0  0
   -5.7930    0.0120    0.3570 H   0  0
   -6.3380   -0.9570   -0.9800 H   0  0
   -6.7170   -1.4810    1.9710 H   0  0
   -7.0700   -2.7400    0.7930 H   0  0
  -10.2850   -1.3010    1.3650 H   0  0
  1  2  1  0
  2  3  2  0
  2  4  1  0
  3  5  1  0
  4  6  2  0
  5  7  1  0
  5  8  2  0
  7  9  1  0
  8 10  1  0
  9 11  1  0
 10 12  1  0
 10 13  2  0
 11 14  2  0
 12 15  2  0
 13 16  1  0
 14 17  1  0
 15 18  1  0
 16 19  2  0
 16 20  1  0
 19 21  1  0
 20 22  2  0
 21 23  1  0
 21 24  2  0
 23 25  1  0
 24 26  1  0
 25 27  2  0
 26 28  1  0
 26 29  1  0
 28 30  1  0
 29 31  1  0
 30 32  1  0
 32 33  1  0
 33 34  1  0
 34 35  1  0
 35 36  2  0
 35 37  1  0
  6  8  1  0
 11 12  1  0
 17 18  2  0
 22 24  1  0
 25 26  1  0
 31 32  1  0
  3 38  1  0
  4 39  1  0
  6 40  1  0
  9 41  1  0
  9 42  1  0
 13 43  1  0
 14 44  1  0
 15 45  1  0
 17 46  1  0
 18 47  1  0
 19 48  1  0
 20 49  1  0
 22 50  1  0
 23 51  1  0
 28 52  1  0
 28 53  1  0
 29 54  1  0
 29 55  1  0
 30 56  1  0
 30 57  1  0
 31 58  1  0
 31 59  1  0
 33 60  1  0
 33 61  1  0
 34 62  1  0
 34 63  1  0
 37 64  1  0
M  END
> <Name>
CHEMBL3775464

> <IC50 nM>
12000

> <Molecule_ChEMBL_ID>
CHEMBL3775464

> <Smiles>
O=C(O)CCN1CCC2(CC1)C(=O)Nc1cc(/C=C3\c4ccccc4COc4cc(F)ccc43)ccc12

$$$$
CHEMBL236754
  SciTegic08162514323D

 57 59  0  0  1  0            999 V2000
    1.8750    5.8600    2.2910 F   0  0
    0.9100    5.0940    1.7850 C   0  0
    1.2380    3.9770    0.9980 C   0  0
   -0.4370    5.4040    2.0350 C   0  0
    0.2210    3.1680    0.4630 C   0  0
   -1.4550    4.5960    1.5000 C   0  0
   -1.1310    3.4770    0.7130 C   0  0
    0.5800    1.9860   -0.3670 C   0  0
   -2.0940    2.7270    0.2170 O   0  0
    0.3220    0.9790    0.7520 C   0  0
    2.0450    2.0270   -0.8010 C   0  0
   -0.3790    1.8170   -1.5470 C   0  0
   -3.4180    2.9490    0.6780 C   0  0
    1.0570   -0.3440    0.5350 C   0  0  1  0  0  0
    2.4400   -0.1130    0.6890 O   0  0
    0.6020   -1.2850    1.6520 C   0  0
    0.8220   -0.9280   -0.8590 C   0  0
   -0.7260   -1.5780    1.4900 F   0  0
    0.7910   -0.6760    2.8670 F   0  0
    1.3340   -2.4410    1.6020 F   0  0
    0.6660   -2.3960   -0.8140 C   0  0
   -0.6250   -3.0000   -0.7830 C   0  0
    1.8240   -3.2150   -0.8030 C   0  0
   -0.7380   -4.4260   -0.7380 C   0  0
   -1.8060   -2.2110   -0.7970 C   0  0
    1.7030   -4.6250   -0.7600 C   0  0
    3.1700   -2.6130   -0.8340 C   0  0
    0.4280   -5.2300   -0.7270 C   0  0
   -2.0170   -5.0390   -0.7050 C   0  0
   -3.0780   -2.8320   -0.7640 C   0  0
   -3.1820   -4.2400   -0.7170 C   0  0
    2.2760    3.7380    0.8070 H   0  0
   -0.6930    6.2620    2.6390 H   0  0
   -2.4880    4.8380    1.6950 H   0  0
   -0.7460    0.8090    0.8810 H   0  0
    0.5780    1.4060    1.7230 H   0  0
    2.2930    2.9590   -1.3110 H   0  0
    2.2700    1.2050   -1.4800 H   0  0
    2.7050    1.9360    0.0630 H   0  0
   -0.7850    2.7700   -1.8810 H   0  0
   -1.2170    1.1740   -1.2710 H   0  0
    0.1310    1.3540   -2.3930 H   0  0
   -4.0700    2.2110    0.2110 H   0  0
   -3.4020    2.9570    1.7680 H   0  0
   -3.7360    3.9360    0.3420 H   0  0
    2.8380   -0.1600   -0.1930 H   0  0
    1.6430   -0.6700   -1.5270 H   0  0
   -0.0600   -0.4820   -1.3180 H   0  0
   -1.7650   -1.1310   -0.8340 H   0  0
    2.5880   -5.2460   -0.7520 H   0  0
    3.4980   -2.1990    0.1190 H   0  0
    3.1900   -1.8090   -1.5700 H   0  0
    3.8970   -3.3650   -1.1410 H   0  0
    0.3620   -6.3110   -0.6930 H   0  0
   -2.1210   -6.1150   -0.6680 H   0  0
   -3.9730   -2.2270   -0.7750 H   0  0
   -4.1560   -4.7070   -0.6910 H   0  0
  1  2  1  0
  2  3  2  0
  2  4  1  0
  3  5  1  0
  4  6  2  0
  5  7  2  0
  5  8  1  0
  7  9  1  0
  8 10  1  0
  8 11  1  0
  8 12  1  0
  9 13  1  0
 10 14  1  0
 14 15  1  0
 14 16  1  0
 14 17  1  0
 16 18  1  0
 16 19  1  0
 16 20  1  0
 17 21  1  0
 21 22  2  0
 21 23  1  0
 22 24  1  0
 22 25  1  0
 23 26  2  0
 23 27  1  0
 24 28  2  0
 24 29  1  0
 25 30  2  0
 29 31  2  0
  6  7  1  0
 26 28  1  0
 30 31  1  0
  3 32  1  0
  4 33  1  0
  6 34  1  0
 10 35  1  0
 10 36  1  0
 11 37  1  0
 11 38  1  0
 11 39  1  0
 12 40  1  0
 12 41  1  0
 12 42  1  0
 13 43  1  0
 13 44  1  0
 13 45  1  0
 15 46  1  0
 17 47  1  0
 17 48  1  0
 25 49  1  0
 26 50  1  0
 27 51  1  0
 27 52  1  0
 27 53  1  0
 28 54  1  0
 29 55  1  0
 30 56  1  0
 31 57  1  0
M  END
> <Name>
CHEMBL236754

> <IC50 nM>
64

> <Molecule_ChEMBL_ID>
CHEMBL236754

> <Smiles>
COc1ccc(F)cc1C(C)(C)CC(O)(Cc1c(C)ccc2ccccc12)C(F)(F)F

$$$$
CHEMBL195967
  SciTegic08162514323D

 55 59  0  0  1  0            999 V2000
    7.2870    1.0210   -4.1520 F   0  0
    6.4280    0.5900   -3.2320 C   0  0
    6.3650   -0.7770   -2.9160 C   0  0
    5.5800    1.5020   -2.5800 C   0  0
    5.4570   -1.2360   -1.9450 C   0  0
    4.6700    1.0470   -1.6090 C   0  0
    4.6080   -0.3240   -1.2890 C   0  0
    3.7290   -0.7640   -0.3520 N   0  0
    4.0270   -1.6620    0.6250 N   0  0
    2.4300   -0.3810   -0.2400 C   0  0
    2.9690   -1.9450    1.4340 C   0  0
    2.0000   -1.1350    0.8460 C   0  0
    1.5860    0.5620   -1.0020 C   0  0
    0.5370   -1.0270    1.2790 C   0  0
    0.3690    0.8420   -0.4880 C   0  0
   -0.0880    0.3420    0.8690 C   0  0  1  0  0  0
   -0.6950    1.6600   -1.1560 C   0  0
   -1.6390    0.3940    0.7130 C   0  0  1  0  0  0
    0.3730    1.4020    1.8830 C   0  0
   -1.8030    1.7110   -0.1000 C   0  0
   -2.0780   -0.7580   -0.0310 O   0  0
   -2.2680    0.4800    1.9940 O   0  0
   -3.4840   -0.9940   -0.1250 C   0  0
   -3.6860    0.4590    1.9670 C   0  0  1  0  0  0
   -4.1130   -0.8460    1.2750 C   0  0
   -4.1070   -0.0430   -1.1500 C   0  0
   -3.6310   -2.4300   -0.6330 C   0  0
   -4.1800    0.5490    3.4120 C   0  0
    7.0140   -1.4830   -3.4160 H   0  0
    5.6250    2.5530   -2.8200 H   0  0
    5.4220   -2.2910   -1.7150 H   0  0
    4.0270    1.7640   -1.1170 H   0  0
    2.9420   -2.6210    2.2770 H   0  0
    1.9260    1.0040   -1.9280 H   0  0
    0.4450   -1.1880    2.3560 H   0  0
    0.0140   -1.8580    0.8050 H   0  0
   -0.3360    2.6440   -1.4180 H   0  0
   -1.0310    1.1600   -2.0530 H   0  0
    0.0080    2.3960    1.6270 H   0  0
    1.4630    1.4470    1.9220 H   0  0
    0.0140    1.1620    2.8830 H   0  0
   -1.6330    2.5640    0.5430 H   0  0
   -2.7730    1.8690   -0.5350 H   0  0
   -4.0390    1.3260    1.4080 H   0  0
   -3.8180   -1.6930    1.8990 H   0  0
   -5.1990   -0.8910    1.2050 H   0  0
   -4.5080    0.8550   -0.6800 H   0  0
   -4.9220   -0.5330   -1.6820 H   0  0
   -3.3670    0.2670   -1.8870 H   0  0
   -3.1840   -3.1510    0.0510 H   0  0
   -3.1480   -2.5470   -1.6040 H   0  0
   -4.6840   -2.6920   -0.7500 H   0  0
   -3.8500    1.4780    3.8750 H   0  0
   -5.2680    0.4960    3.4510 H   0  0
   -3.7850   -0.2770    4.0060 H   0  0
  1  2  1  0
  2  3  2  0
  2  4  1  0
  3  5  1  0
  4  6  2  0
  5  7  2  0
  7  8  1  0
  8  9  1  0
  8 10  1  0
  9 11  2  0
 10 12  2  0
 10 13  1  0
 12 14  1  0
 13 15  2  0
 14 16  1  0
 15 17  1  0
 16 18  1  0
 16 19  1  0
 17 20  1  0
 18 21  1  0
 18 22  1  0
 21 23  1  0
 22 24  1  0
 23 25  1  0
 23 26  1  0
 23 27  1  0
 24 28  1  0
  6  7  1  0
 11 12  1  0
 15 16  1  0
 18 20  1  0
 24 25  1  0
  3 29  1  0
  4 30  1  0
  5 31  1  0
  6 32  1  0
 11 33  1  0
 13 34  1  0
 14 35  1  0
 14 36  1  0
 17 37  1  0
 17 38  1  0
 19 39  1  0
 19 40  1  0
 19 41  1  0
 20 42  1  0
 20 43  1  0
 24 44  1  0
 25 45  1  0
 25 46  1  0
 26 47  1  0
 26 48  1  0
 26 49  1  0
 27 50  1  0
 27 51  1  0
 27 52  1  0
 28 53  1  0
 28 54  1  0
 28 55  1  0
M  END
> <Name>
CHEMBL195967

> <IC50 nM>
2.1

> <Molecule_ChEMBL_ID>
CHEMBL195967

> <Smiles>
C[C@@H]1CC(C)(C)O[C@@]2(CCC3=Cc4c(cnn4-c4ccc(F)cc4)C[C@@]32C)O1

$$$$
CHEMBL4214133
  SciTegic08162514323D

 65 68  0  0  1  0            999 V2000
   -5.5350    0.3940    1.9200 F   0  0
   -5.6310   -0.9630    2.0840 C   0  0
   -6.7290   -1.4300    1.4080 F   0  0
   -4.3810   -1.6410    1.5880 C   0  0
   -5.7700   -1.2910    3.5710 C   0  0
   -3.6930   -2.3010    2.3320 O   0  0
   -4.0350   -1.5000    0.2740 N   0  0
   -2.8180   -2.1540   -0.2260 C   0  0  2  0  0  0
   -1.6370   -1.1860   -0.2320 C   0  0  2  0  0  0
   -3.0630   -2.7950   -1.5940 C   0  0
   -0.4980   -1.8300   -0.7830 O   0  0
   -1.3180   -0.7010    1.1370 C   0  0
   -4.2190   -3.7950   -1.5780 C   0  0
   -3.1910   -1.7620   -2.7130 C   0  0
    0.6390   -1.1250   -0.8850 C   0  0
   -1.7050    0.5900    1.5350 C   0  0
   -0.6290   -1.5350    2.0350 C   0  0
    1.8890   -1.7990   -0.9140 C   0  0
    0.5840    0.2950   -0.9610 C   0  0
   -1.4040    1.0470    2.8300 C   0  0
   -0.3280   -1.0780    3.3300 C   0  0
    3.0860   -1.0430   -1.0210 C   0  0
    1.7770    1.0530   -1.0680 C   0  0
   -0.7170    0.2130    3.7290 C   0  0
    2.9920    0.3360   -1.0940 C   0  0
    4.3560   -1.6330   -1.0580 C   0  0
    4.3010    0.6190   -1.1820 N   0  0
    5.1130   -0.4770   -1.1640 N   0  0
    4.8090    1.9450   -1.2830 C   0  0
    4.5450    2.8570   -0.3180 C   0  0
    5.6350    2.3460   -2.4470 C   0  0
    5.0230    4.1500   -0.3850 N   0  0
    6.1150    3.6050   -2.5390 C   0  0
    5.7990    4.5700   -1.4530 C   0  0
    4.6970    5.0940    0.6990 C   0  0
    6.9180    4.0080   -3.6640 C   0  0
    6.2090    5.7070   -1.4980 O   0  0
    7.5650    4.3300   -4.5720 N   0  0
   -6.6560   -0.8320    4.0060 H   0  0
   -4.9020   -0.9320    4.1270 H   0  0
   -5.8420   -2.3670    3.7230 H   0  0
   -4.6060   -0.9530   -0.3400 H   0  0
   -2.6000   -3.0260    0.3930 H   0  0
   -1.8890   -0.3360   -0.8670 H   0  0
   -2.1520   -3.2620   -1.9690 H   0  0
   -4.3240   -4.3090   -2.5330 H   0  0
   -5.1620   -3.2930   -1.3630 H   0  0
   -4.0630   -4.5530   -0.8080 H   0  0
   -3.2790   -2.2540   -3.6820 H   0  0
   -4.0660   -1.1290   -2.5550 H   0  0
   -2.3150   -1.1170   -2.7460 H   0  0
   -2.2340    1.2360    0.8500 H   0  0
   -0.3280   -2.5290    1.7370 H   0  0
    1.9180   -2.8790   -0.8550 H   0  0
   -0.3710    0.8010   -0.9390 H   0  0
   -1.7030    2.0390    3.1350 H   0  0
    0.2010   -1.7190    4.0200 H   0  0
    1.7560    2.1290   -1.1290 H   0  0
   -0.4840    0.5640    4.7230 H   0  0
    4.6970   -2.6580   -1.0190 H   0  0
    3.9390    2.5600    0.5330 H   0  0
    5.8420    1.6150   -3.2130 H   0  0
    4.0840    4.6780    1.4980 H   0  0
    4.1680    5.9490    0.2850 H   0  0
    5.6230    5.4570    1.1470 H   0  0
  1  2  1  0
  2  3  1  0
  2  4  1  0
  2  5  1  0
  4  6  2  0
  4  7  1  0
  8  7  1  0
  8  9  1  0
  8 10  1  0
  9 11  1  0
  9 12  1  0
 10 13  1  0
 10 14  1  0
 11 15  1  0
 12 16  2  0
 12 17  1  0
 15 18  2  0
 15 19  1  0
 16 20  1  0
 17 21  2  0
 18 22  1  0
 19 23  2  0
 20 24  2  0
 22 25  2  0
 22 26  1  0
 25 27  1  0
 26 28  2  0
 27 29  1  0
 29 30  2  0
 29 31  1  0
 30 32  1  0
 31 33  2  0
 32 34  1  0
 32 35  1  0
 33 36  1  0
 34 37  2  0
 36 38  3  0
 21 24  1  0
 23 25  1  0
 27 28  1  0
 33 34  1  0
  5 39  1  0
  5 40  1  0
  5 41  1  0
  7 42  1  0
  8 43  1  0
  9 44  1  0
 10 45  1  0
 13 46  1  0
 13 47  1  0
 13 48  1  0
 14 49  1  0
 14 50  1  0
 14 51  1  0
 16 52  1  0
 17 53  1  0
 18 54  1  0
 19 55  1  0
 20 56  1  0
 21 57  1  0
 23 58  1  0
 24 59  1  0
 26 60  1  0
 30 61  1  0
 31 62  1  0
 35 63  1  0
 35 64  1  0
 35 65  1  0
M  END
> <Name>
CHEMBL4214133

> <IC50 nM>
7.2

> <Molecule_ChEMBL_ID>
CHEMBL4214133

> <Smiles>
CC(C)[C@H](NC(=O)C(C)(F)F)[C@H](Oc1ccc2c(cnn2-c2cc(C#N)c(=O)n(C)c2)c1)c1ccccc1

$$$$
CHEMBL4210967
  SciTegic08162514323D

 64 67  0  0  1  0            999 V2000
   -3.7400   -6.3380   -1.0180 F   0  0
   -3.1910   -5.6960    0.0610 C   0  0
   -1.8830   -6.0800    0.2030 F   0  0
   -3.2870   -4.2030   -0.1090 C   0  0
   -3.9710   -6.0650    1.3240 C   0  0
   -3.9630   -3.7190   -0.9880 O   0  0
   -2.5960   -3.4010    0.7520 N   0  0
   -2.6780   -1.9400    0.6000 C   0  0  2  0  0  0
   -1.3260   -1.3540    0.1910 C   0  0  2  0  0  0
   -3.2460   -1.2890    1.8610 C   0  0
   -1.4200    0.0620    0.1410 O   0  0
   -0.8830   -1.8670   -1.1310 C   0  0
   -4.6740   -1.7440    2.1680 C   0  0
   -2.3120   -1.4220    3.0650 C   0  0
   -0.2830    0.7650    0.0390 C   0  0
   -0.0700   -3.0140   -1.2050 C   0  0
   -1.2770   -1.2090   -2.3110 C   0  0
    0.9670    0.0880    0.0100 C   0  0
   -0.3320    2.1830   -0.0390 C   0  0
    0.3480   -3.5000   -2.4570 C   0  0
   -0.8590   -1.6970   -3.5610 C   0  0
    2.1620    0.8440   -0.0980 C   0  0
    0.8650    2.9320   -0.1450 C   0  0
   -0.0470   -2.8420   -3.6350 C   0  0
    2.0880    2.2230   -0.1720 C   0  0
    3.4160    0.2560   -0.1330 C   0  0
    3.3950    2.5760   -0.2620 N   0  0
    4.1450    1.4220   -0.2380 N   0  0
    3.8930    3.8380   -0.3590 C   0  0
    3.3710    4.8770    0.4390 C   0  0
    4.9380    4.1230   -1.2600 C   0  0
    3.8580    6.1480    0.3560 N   0  0
    5.4280    5.4370   -1.3340 C   0  0
    4.8690    6.4370   -0.5140 C   0  0
    5.3300    7.6700   -0.5820 O   0  0
    4.8420    8.6190    0.3560 C   0  0
   -3.9730   -7.1390    1.5000 H   0  0
   -5.0080   -5.7370    1.2460 H   0  0
   -3.5330   -5.5840    2.1990 H   0  0
   -2.0370   -3.8010    1.4770 H   0  0
   -3.2950   -1.7030   -0.2680 H   0  0
   -0.5660   -1.5780    0.9410 H   0  0
   -3.2420   -0.2680    1.4810 H   0  0
   -4.7030   -2.7720    2.5290 H   0  0
   -5.2970   -1.6880    1.2750 H   0  0
   -5.1250   -1.1100    2.9320 H   0  0
   -1.3180   -1.0280    2.8540 H   0  0
   -2.2030   -2.4670    3.3540 H   0  0
   -2.7110   -0.8790    3.9220 H   0  0
    0.2360   -3.5240   -0.3050 H   0  0
   -1.9020   -0.3300   -2.2620 H   0  0
    0.9920   -0.9900    0.0680 H   0  0
   -1.2830    2.6930   -0.0160 H   0  0
    0.9710   -4.3790   -2.5120 H   0  0
   -1.1620   -1.1900   -4.4650 H   0  0
    0.8420    4.0120   -0.2050 H   0  0
    0.2750   -3.2150   -4.5960 H   0  0
    3.7680   -0.7680   -0.0960 H   0  0
    2.5680    4.6800    1.1370 H   0  0
    5.3650    3.3550   -1.8890 H   0  0
    6.2290    5.6780   -2.0180 H   0  0
    3.7790    8.7710    0.1620 H   0  0
    5.1060    8.2770    1.3560 H   0  0
    5.3520    9.5640    0.1800 H   0  0
  1  2  1  0
  2  3  1  0
  2  4  1  0
  2  5  1  0
  4  6  2  0
  4  7  1  0
  8  7  1  0
  8  9  1  0
  8 10  1  0
  9 11  1  0
  9 12  1  0
 10 13  1  0
 10 14  1  0
 11 15  1  0
 12 16  2  0
 12 17  1  0
 15 18  2  0
 15 19  1  0
 16 20  1  0
 17 21  2  0
 18 22  1  0
 19 23  2  0
 20 24  2  0
 22 25  2  0
 22 26  1  0
 25 27  1  0
 26 28  2  0
 27 29  1  0
 29 30  2  0
 29 31  1  0
 30 32  1  0
 31 33  2  0
 32 34  2  0
 34 35  1  0
 35 36  1  0
 21 24  1  0
 23 25  1  0
 27 28  1  0
 33 34  1  0
  5 37  1  0
  5 38  1  0
  5 39  1  0
  7 40  1  0
  8 41  1  0
  9 42  1  0
 10 43  1  0
 13 44  1  0
 13 45  1  0
 13 46  1  0
 14 47  1  0
 14 48  1  0
 14 49  1  0
 16 50  1  0
 17 51  1  0
 18 52  1  0
 19 53  1  0
 20 54  1  0
 21 55  1  0
 23 56  1  0
 24 57  1  0
 26 58  1  0
 30 59  1  0
 31 60  1  0
 33 61  1  0
 36 62  1  0
 36 63  1  0
 36 64  1  0
M  END
> <Name>
CHEMBL4210967

> <IC50 nM>
57

> <Molecule_ChEMBL_ID>
CHEMBL4210967

> <Smiles>
COc1ccc(-n2ncc3cc(O[C@H](c4ccccc4)[C@@H](NC(=O)C(C)(F)F)C(C)C)ccc32)cn1

$$$$
CHEMBL218006
  SciTegic08162514323D

 33 34  0  0  1  0            999 V2000
   -0.7030    1.0180    0.8120 S   0  0
    0.9470    1.0410    0.5120 C   0  0
   -0.5570    1.4180    2.5080 C   0  0  1  0  0  0
    1.6640    1.3260    1.5330 N   0  0
    1.5700    0.7950   -0.6800 N   0  0
    0.9380    1.5620    2.7150 C   0  0
   -1.3030    2.7170    2.7850 C   0  0
   -1.1390    0.2850    3.3420 C   0  0
    0.7620    0.4670   -1.8610 C   0  0  2  0  0  0
    1.4710    1.8480    3.7640 O   0  0
   -1.1660    3.0490    4.1070 F   0  0
   -2.6330    2.5510    2.4900 F   0  0
   -0.7850    3.7170    2.0060 F   0  0
    0.1990   -0.9080   -1.7770 C   0  0
    1.5640    0.6700   -3.1490 C   0  0
    1.0530   -2.0220   -1.6520 C   0  0
   -1.1930   -1.0940   -1.8220 C   0  0
    2.3750   -1.8610   -1.6080 F   0  0
    0.5100   -3.3170   -1.5720 C   0  0
   -1.7340   -2.3890   -1.7420 C   0  0
   -0.8830   -3.5000   -1.6170 C   0  0
    2.5660    0.8380   -0.7440 H   0  0
   -0.6390   -0.6620    3.1440 H   0  0
   -2.1990    0.1540    3.1250 H   0  0
   -1.0390    0.5000    4.4040 H   0  0
   -0.1350    1.0860   -1.8670 H   0  0
    1.8570    1.7130   -3.2580 H   0  0
    2.4590    0.0450   -3.1470 H   0  0
    0.9690    0.3960   -4.0200 H   0  0
   -1.8540   -0.2440   -1.9180 H   0  0
    1.1600   -4.1740   -1.4770 H   0  0
   -2.8050   -2.5290   -1.7770 H   0  0
   -1.2990   -4.4940   -1.5570 H   0  0
  1  2  1  0
  1  3  1  0
  2  4  2  0
  2  5  1  0
  3  6  1  0
  3  7  1  0
  3  8  1  0
  5  9  1  0
  6 10  2  0
  7 11  1  0
  7 12  1  0
  7 13  1  0
  9 14  1  0
  9 15  1  0
 14 16  2  0
 14 17  1  0
 16 18  1  0
 16 19  1  0
 17 20  2  0
 19 21  2  0
  4  6  1  0
 20 21  1  0
  5 22  1  0
  8 23  1  0
  8 24  1  0
  8 25  1  0
  9 26  1  0
 15 27  1  0
 15 28  1  0
 15 29  1  0
 17 30  1  0
 19 31  1  0
 20 32  1  0
 21 33  1  0
M  END
> <Name>
CHEMBL218006

> <IC50 nM>
50000

> <Molecule_ChEMBL_ID>
CHEMBL218006

> <Smiles>
C[C@H](NC1=NC(=O)[C@@](C)(C(F)(F)F)S1)c1ccccc1F

$$$$
CHEMBL457977
  SciTegic08162514323D

 41 44  0  0  0  0            999 V2000
    1.4220    2.3200   -2.0410 F   0  0
    2.0960    1.1760   -1.9240 C   0  0
    2.2830    0.5800   -0.6620 C   0  0
    2.6230    0.5630   -3.0740 C   0  0
    2.9980   -0.6270   -0.5550 C   0  0
    1.7320    1.2190    0.5650 C   0  0
    3.3360   -0.6440   -2.9650 C   0  0
    3.5230   -1.2380   -1.7070 C   0  0
    0.2620    1.1660    0.5880 N   0  0
   -0.5270    2.2930    0.5020 N   0  0
   -0.4690   -0.0080    0.6970 C   0  0
   -1.8260    1.9340    0.5510 C   0  0
    0.0390   -1.3960    0.8090 C   0  0
   -1.7340    0.5630    0.6660 C   0  0
   -3.0510    2.6350    0.5080 C   0  0
    0.8810   -1.7580    1.8790 C   0  0
   -0.3180   -2.3590   -0.1540 C   0  0
   -2.9320   -0.1990    0.7460 C   0  0
   -4.2480    1.8790    0.5900 C   0  0
   -3.0900    4.1020    0.3830 C   0  0
    1.3630   -3.0740    1.9820 C   0  0
    0.1620   -3.6760   -0.0490 C   0  0
   -4.1880    0.4650    0.7090 C   0  0
   -2.4410    4.6680    1.4490 F   0  0
   -4.3950    4.5240    0.3650 F   0  0
   -2.4730    4.4770   -0.7810 F   0  0
    1.0040   -4.0330    1.0200 C   0  0
    1.4610   -5.2790    1.1210 F   0  0
    2.4810    1.0160   -4.0450 H   0  0
    3.1470   -1.0880    0.4100 H   0  0
    2.1290    0.7170    1.4450 H   0  0
    2.0590    2.2580    0.6110 H   0  0
    3.7380   -1.1130   -3.8500 H   0  0
    4.0700   -2.1660   -1.6230 H   0  0
    1.1660   -1.0310    2.6250 H   0  0
   -0.9650   -2.1000   -0.9800 H   0  0
   -2.9040   -1.2750    0.8360 H   0  0
   -5.2070    2.3750    0.5650 H   0  0
    2.0080   -3.3440    2.8050 H   0  0
   -0.1150   -4.4100   -0.7890 H   0  0
   -5.1000   -0.1090    0.7720 H   0  0
  1  2  1  0
  2  3  2  0
  2  4  1  0
  3  5  1  0
  3  6  1  0
  4  7  2  0
  5  8  2  0
  6  9  1  0
  9 10  1  0
  9 11  1  0
 10 12  2  0
 11 13  1  0
 11 14  2  0
 12 15  1  0
 13 16  2  0
 13 17  1  0
 14 18  1  0
 15 19  2  0
 15 20  1  0
 16 21  1  0
 17 22  2  0
 18 23  2  0
 20 24  1  0
 20 25  1  0
 20 26  1  0
 21 27  2  0
 27 28  1  0
  7  8  1  0
 12 14  1  0
 19 23  1  0
 22 27  1  0
  4 29  1  0
  5 30  1  0
  6 31  1  0
  6 32  1  0
  7 33  1  0
  8 34  1  0
 16 35  1  0
 17 36  1  0
 18 37  1  0
 19 38  1  0
 21 39  1  0
 22 40  1  0
 23 41  1  0
M  END
> <Name>
CHEMBL457977

> <IC50 nM>
7200

> <Molecule_ChEMBL_ID>
CHEMBL457977

> <Smiles>
Fc1ccc(-c2c3cccc(C(F)(F)F)c3nn2Cc2ccccc2F)cc1

$$$$
CHEMBL1762205
  SciTegic08162514323D

 55 59  0  0  0  0            999 V2000
   -0.1910    0.8320   -0.8380 F   0  0
   -0.3570   -0.4510   -0.5100 C   0  0
   -1.6740   -0.9860   -0.4880 C   0  0
    0.7600   -1.2890   -0.1910 C   0  0
   -1.8910   -2.3440   -0.1540 C   0  0
   -2.8110   -0.1350   -0.8120 C   0  0
    0.5290   -2.6520    0.1800 C   0  0
    2.1820   -0.7810   -0.2480 C   0  0
   -3.1190   -2.8650   -0.1420 F   0  0
   -0.7950   -3.1660    0.1760 C   0  0
   -3.8110    0.1520    0.1500 C   0  0
   -2.9320    0.4200   -2.1130 C   0  0
    1.5470   -3.4730    0.5490 N   0  0
    2.4880    0.4570   -0.4320 N   0  0
    3.2910   -1.8070   -0.0820 C   0  0
   -3.9730   -0.2290    1.4750 N   0  0
   -4.8850    0.9530   -0.1580 C   0  0
   -4.0430    1.2480   -2.4300 C   0  0
    2.9040   -2.9550    0.8710 C   0  0
    3.8460    0.9280   -0.4880 O   0  0
   -5.1700    0.3670    1.9420 C   0  0
   -5.7290    1.1110    0.8870 C   0  0
   -5.0310    1.5210   -1.4490 C   0  0
    2.9020   -2.4550    2.3220 C   0  0
    3.9240   -4.0920    0.7440 C   0  0
    3.8630    2.2320   -0.6740 C   0  0
   -7.0120    1.9180    0.9360 C   0  0
    4.7210    2.7970   -1.6350 C   0  0
    3.0240    3.0660    0.0860 C   0  0
    4.7380    4.1870   -1.8360 C   0  0
    3.0410    4.4570   -0.1130 C   0  0
    3.8990    5.0180   -1.0740 C   0  0
   -0.9820   -4.2010    0.4300 H   0  0
   -2.1860    0.2210   -2.8730 H   0  0
    1.3870   -4.4570    0.6450 H   0  0
    4.2130   -1.3440    0.2770 H   0  0
    3.5250   -2.2110   -1.0700 H   0  0
   -3.3630   -0.8130    2.0020 H   0  0
   -4.1350    1.6700   -3.4180 H   0  0
   -5.5530    0.2440    2.9450 H   0  0
   -5.8750    2.1500   -1.6930 H   0  0
    2.1820   -1.6500    2.4730 H   0  0
    3.8870   -2.0780    2.6020 H   0  0
    2.6490   -3.2640    3.0060 H   0  0
    3.9490   -4.5040   -0.2640 H   0  0
    3.6820   -4.9040    1.4320 H   0  0
    4.9280   -3.7400    0.9860 H   0  0
   -7.4790    1.7970    1.9120 H   0  0
   -6.7950    2.9590    0.6970 H   0  0
   -7.7050    1.5410    0.1860 H   0  0
    5.3670    2.1620   -2.2230 H   0  0
    2.3610    2.6390    0.8240 H   0  0
    5.3990    4.6190   -2.5740 H   0  0
    2.3950    5.0940    0.4730 H   0  0
    3.9120    6.0880   -1.2260 H   0  0
  1  2  1  0
  2  3  2  0
  2  4  1  0
  3  5  1  0
  3  6  1  0
  4  7  2  0
  4  8  1  0
  5  9  1  0
  5 10  2  0
  6 11  2  0
  6 12  1  0
  7 13  1  0
  8 14  2  0
  8 15  1  0
 11 16  1  0
 11 17  1  0
 12 18  2  0
 13 19  1  0
 14 20  1  0
 16 21  1  0
 17 22  1  0
 17 23  2  0
 19 24  1  0
 19 25  1  0
 20 26  1  0
 22 27  1  0
 26 28  2  0
 26 29  1  0
 28 30  1  0
 29 31  2  0
 30 32  2  0
  7 10  1  0
 15 19  1  0
 18 23  1  0
 21 22  2  0
 31 32  1  0
 10 33  1  0
 12 34  1  0
 13 35  1  0
 15 36  1  0
 15 37  1  0
 16 38  1  0
 18 39  1  0
 21 40  1  0
 23 41  1  0
 24 42  1  0
 24 43  1  0
 24 44  1  0
 25 45  1  0
 25 46  1  0
 25 47  1  0
 27 48  1  0
 27 49  1  0
 27 50  1  0
 28 51  1  0
 29 52  1  0
 30 53  1  0
 31 54  1  0
 32 55  1  0
M  END
> <Name>
CHEMBL1762205

> <IC50 nM>
51

> <Molecule_ChEMBL_ID>
CHEMBL1762205

> <Smiles>
Cc1c[nH]c2c(-c3c(F)cc4c(c3F)/C(=N/Oc3ccccc3)CC(C)(C)N4)cccc12

$$$$
CHEMBL4089302
  SciTegic08162514323D

 58 62  0  0  0  0            999 V2000
   -1.6330   -1.2890    0.8380 S   0  0
   -0.4920   -2.1700    1.0180 O   0  0
   -2.9000   -1.9980    0.7830 O   0  0
   -1.4410   -0.5250   -0.5780 N   0  0
   -1.6840   -0.1900    2.1660 C   0  0
   -0.7360    0.6460   -0.6330 C   0  0
   -2.0270   -1.0900   -1.8030 C   0  0
   -0.9730   -0.4810    3.3440 C   0  0
   -2.4340    0.9960    2.0670 C   0  0
   -1.0590    1.6210   -1.5960 C   0  0
    0.3160    0.8810    0.2740 C   0  0
   -2.0720   -2.5630   -1.7540 C   0  0
   -1.0120    0.4140    4.4280 C   0  0
   -2.4770    1.8940    3.1470 C   0  0
   -0.3320    2.8240   -1.6500 C   0  0
    1.0410    2.0840    0.2150 C   0  0
   -0.8850   -3.3520   -1.7380 C   0  0
   -3.3380   -3.1990   -1.7190 C   0  0
   -1.7640    1.6000    4.3260 C   0  0
    0.7190    3.0590   -0.7460 C   0  0
   -0.9860   -4.7770   -1.6930 C   0  0
    0.4000   -2.7440   -1.7690 C   0  0
   -3.4300   -4.6100   -1.6720 C   0  0
   -1.8070    2.5160    5.4340 C   0  0
    1.3980    4.1860   -0.7990 O   0  0
   -2.2600   -5.4010   -1.6600 C   0  0
    0.1890   -5.5740   -1.6840 C   0  0
    1.5640   -3.5470   -1.7580 C   0  0
   -1.8400    3.2560    6.3260 N   0  0
    2.6950    4.1370   -0.5680 C   0  0
    1.4590   -4.9550   -1.7170 C   0  0
    3.3240    5.1780    0.1390 C   0  0
    3.4550    3.0450   -1.0230 C   0  0
    4.7070    5.1270    0.3870 C   0  0
    4.8380    2.9940   -0.7770 C   0  0
    5.4630    4.0350   -0.0720 C   0  0
   -1.4340   -0.7740   -2.6600 H   0  0
   -3.0350   -0.6970   -1.9320 H   0  0
   -0.3970   -1.3910    3.4180 H   0  0
   -2.9790    1.2170    1.1600 H   0  0
   -1.8630    1.4610   -2.2990 H   0  0
    0.5800    0.1440    1.0200 H   0  0
   -0.4610    0.1780    5.3280 H   0  0
   -3.0590    2.8010    3.0590 H   0  0
   -0.5840    3.5680   -2.3910 H   0  0
    1.8480    2.2580    0.9120 H   0  0
   -4.2420   -2.6090   -1.7280 H   0  0
    0.5160   -1.6700   -1.8030 H   0  0
   -4.4000   -5.0840   -1.6440 H   0  0
   -2.3540   -6.4770   -1.6230 H   0  0
    0.1310   -6.6530   -1.6500 H   0  0
    2.5370   -3.0800   -1.7830 H   0  0
    2.3540   -5.5610   -1.7090 H   0  0
    2.7460    6.0200    0.4920 H   0  0
    2.9770    2.2440   -1.5660 H   0  0
    5.1880    5.9280    0.9280 H   0  0
    5.4180    2.1540   -1.1290 H   0  0
    6.5250    3.9960    0.1190 H   0  0
  1  2  2  0
  1  3  2  0
  1  4  1  0
  1  5  1  0
  4  6  1  0
  4  7  1  0
  5  8  2  0
  5  9  1  0
  6 10  2  0
  6 11  1  0
  7 12  1  0
  8 13  1  0
  9 14  2  0
 10 15  1  0
 11 16  2  0
 12 17  2  0
 12 18  1  0
 13 19  2  0
 15 20  2  0
 17 21  1  0
 17 22  1  0
 18 23  2  0
 19 24  1  0
 20 25  1  0
 21 26  2  0
 21 27  1  0
 22 28  2  0
 24 29  3  0
 25 30  1  0
 27 31  2  0
 30 32  2  0
 30 33  1  0
 32 34  1  0
 33 35  2  0
 34 36  2  0
 14 19  1  0
 16 20  1  0
 23 26  1  0
 28 31  1  0
 35 36  1  0
  7 37  1  0
  7 38  1  0
  8 39  1  0
  9 40  1  0
 10 41  1  0
 11 42  1  0
 13 43  1  0
 14 44  1  0
 15 45  1  0
 16 46  1  0
 18 47  1  0
 22 48  1  0
 23 49  1  0
 26 50  1  0
 27 51  1  0
 28 52  1  0
 31 53  1  0
 32 54  1  0
 33 55  1  0
 34 56  1  0
 35 57  1  0
 36 58  1  0
M  END
> <Name>
CHEMBL4089302

> <IC50 nM>
30000

> <Molecule_ChEMBL_ID>
CHEMBL4089302

> <Smiles>
N#Cc1ccc(S(=O)(=O)N(Cc2cccc3ccccc23)c2ccc(Oc3ccccc3)cc2)cc1

$$$$
CHEMBL525273
  SciTegic08162514323D

 73 76  0  0  1  0            999 V2000
   -2.8030    0.4550   -0.2050 F   0  0
   -2.6090   -0.1970    1.0000 C   0  0  2  0  0  0
   -4.0310   -0.4240    1.6090 C   0  0  2  0  0  0
   -1.6520    0.7460    1.7830 C   0  0  1  0  0  0
   -1.9280   -1.5720    0.7190 C   0  0  2  0  0  0
   -4.8950   -1.1170    0.5490 C   0  0
   -4.6860    0.8550    2.1270 C   0  0
   -3.9730   -1.3650    2.8200 C   0  0
   -1.5020    0.3120    3.1230 O   0  0
   -0.2580    0.8630    1.1150 C   0  0
   -0.6210   -1.3260   -0.0570 C   0  0  1  0  0  0
   -2.8670   -2.6210    0.0700 C   0  0
   -6.2170   -0.8730    0.4360 C   0  0
   -4.2230   -2.0820   -0.4100 C   0  0
   -6.0020    1.1010    1.9810 C   0  0
    0.3670   -0.5080    0.7970 C   0  0  1  0  0  0
    0.2300   -2.5370   -0.4360 C   0  0
   -6.8610    0.1760    1.2320 C   0  0
    1.5760   -0.4960   -0.1560 C   0  0  1  0  0  0
    0.7730   -1.2420    2.0840 C   0  0
    1.6290   -1.9470   -0.6840 C   0  0  1  0  0  0
   -8.0670    0.2830    1.2640 O   0  0
    1.3010    0.3670   -1.2540 O   0  0
    2.8570    0.0080    0.4670 C   0  0
    2.6700   -2.8320    0.0020 C   0  0
    2.3670    0.5640   -2.0230 C   0  0
    3.8360   -0.6970    0.5350 O   0  0
    2.8790    1.4140    1.0020 C   0  0
    3.1780   -0.2930   -2.2830 O   0  0
    2.5140    1.8260   -2.5250 N   0  0
    2.7660    1.3850    2.4060 O   0  0
    3.6660    2.1330   -3.3850 C   0  0  2  0  0  0
    4.2600    3.4760   -3.0590 C   0  0
    3.2970    2.0020   -4.8630 C   0  0
    4.1230    4.4160   -3.8070 O   0  0
    4.9260    3.5370   -1.9080 O   0  0
    6.3050    3.2380   -2.0680 C   0  0
   -2.0740    1.7500    1.8400 H   0  0
   -1.6480   -2.0040    1.6800 H   0  0
   -4.0900    1.5960    2.6390 H   0  0
   -4.9670   -1.6310    3.1780 H   0  0
   -3.4360   -0.8970    3.6450 H   0  0
   -3.4510   -2.2890    2.5650 H   0  0
   -2.0490    0.8920    3.6740 H   0  0
   -0.3730    1.4300    0.1910 H   0  0
    0.4220    1.4530    1.7340 H   0  0
   -0.8590   -0.7970   -0.9710 H   0  0
   -3.0640   -3.4030    0.8070 H   0  0
   -2.3750   -3.1330   -0.7580 H   0  0
   -6.8130   -1.4420   -0.2640 H   0  0
   -4.0780   -1.5690   -1.3610 H   0  0
   -4.8890   -2.9200   -0.6190 H   0  0
   -6.4280    1.9940    2.4120 H   0  0
    0.2320   -3.2560    0.3710 H   0  0
   -0.1520   -3.0390   -1.3120 H   0  0
    0.3140   -2.2310    2.1500 H   0  0
    0.4710   -0.6760    2.9650 H   0  0
    1.8540   -1.3750    2.1290 H   0  0
    1.8400   -1.9400   -1.7440 H   0  0
    3.6680   -2.6780   -0.4080 H   0  0
    2.4200   -3.8870   -0.1170 H   0  0
    2.7130   -2.6170    1.0700 H   0  0
    2.0310    1.9750    0.6060 H   0  0
    3.8220    1.8940    0.7460 H   0  0
    1.8420    2.5350   -2.3090 H   0  0
    2.7930    2.3050    2.7150 H   0  0
    4.4880    1.4650   -3.1330 H   0  0
    4.1350    2.2520   -5.5140 H   0  0
    2.4710    2.6660   -5.1130 H   0  0
    2.9880    0.9820   -5.0940 H   0  0
    6.8260    3.5370   -1.1580 H   0  0
    6.3970    2.1890   -2.3540 H   0  0
    6.6930    3.8440   -2.8870 H   0  0
  2  1  1  0
  2  3  1  0
  2  4  1  0
  2  5  1  0
  3  6  1  0
  3  7  1  0
  3  8  1  0
  4  9  1  0
  4 10  1  0
  5 11  1  0
  5 12  1  0
  6 13  2  0
  6 14  1  0
  7 15  2  0
 10 16  1  0
 11 17  1  0
 13 18  1  0
 16 19  1  0
 16 20  1  0
 17 21  1  0
 18 22  2  0
 19 23  1  0
 19 24  1  0
 21 25  1  0
 23 26  1  0
 24 27  2  0
 24 28  1  0
 26 29  2  0
 26 30  1  0
 28 31  1  0
 30 32  1  0
 32 33  1  0
 32 34  1  0
 33 35  2  0
 33 36  1  0
 36 37  1  0
 11 16  1  0
 12 14  1  0
 15 18  1  0
 19 21  1  0
  4 38  1  0
  5 39  1  0
  7 40  1  0
  8 41  1  0
  8 42  1  0
  8 43  1  0
  9 44  1  0
 10 45  1  0
 10 46  1  0
 11 47  1  0
 12 48  1  0
 12 49  1  0
 13 50  1  0
 14 51  1  0
 14 52  1  0
 15 53  1  0
 17 54  1  0
 17 55  1  0
 20 56  1  0
 20 57  1  0
 20 58  1  0
 21 59  1  0
 25 60  1  0
 25 61  1  0
 25 62  1  0
 28 63  1  0
 28 64  1  0
 30 65  1  0
 31 66  1  0
 32 67  1  0
 34 68  1  0
 34 69  1  0
 34 70  1  0
 37 71  1  0
 37 72  1  0
 37 73  1  0
M  END
> <Name>
CHEMBL525273

> <IC50 nM>
28.6

> <Molecule_ChEMBL_ID>
CHEMBL525273

> <Smiles>
COC(=O)[C@H](C)NC(=O)O[C@]1(C(=O)CO)[C@@H](C)C[C@H]2[C@@H]3CCC4=CC(=O)C=C[C@]4(C)[C@@]3(F)[C@@H](O)C[C@@]21C

$$$$
CHEMBL498651
  SciTegic08162514323D

 68 71  0  0  1  0            999 V2000
   -2.3910    0.6070   -0.4100 F   0  0
   -2.1970   -0.0450    0.7930 C   0  0  2  0  0  0
   -3.6190   -0.2720    1.4020 C   0  0  2  0  0  0
   -1.2380    0.8980    1.5780 C   0  0  1  0  0  0
   -1.5160   -1.4200    0.5120 C   0  0  2  0  0  0
   -4.4810   -0.9650    0.3420 C   0  0
   -4.2720    1.0080    1.9220 C   0  0
   -3.5590   -1.2130    2.6130 C   0  0
   -1.0880    0.4650    2.9160 O   0  0
    0.1560    1.0160    0.9100 C   0  0
   -0.2070   -1.1740   -0.2620 C   0  0  1  0  0  0
   -2.4530   -2.4690   -0.1350 C   0  0
   -5.8030   -0.7210    0.2290 C   0  0
   -3.8110   -1.9300   -0.6170 C   0  0
   -5.5880    1.2540    1.7730 C   0  0
    0.7790   -0.3560    0.5900 C   0  0  1  0  0  0
    0.6430   -2.3850   -0.6430 C   0  0
   -6.4490    0.3280    1.0270 C   0  0
    1.9900   -0.3440   -0.3610 C   0  0  1  0  0  0
    1.1860   -1.0920    1.8790 C   0  0
    2.0430   -1.7950   -0.8910 C   0  0  1  0  0  0
   -7.6520    0.4350    1.0570 O   0  0
    1.7130    0.5190   -1.4610 O   0  0
    3.2700    0.1600    0.2620 C   0  0
    3.0840   -2.6800   -0.2030 C   0  0
    2.7680    0.6780   -2.2560 C   0  0
    4.2540   -0.5410    0.3140 O   0  0
    3.2850    1.5610    0.8140 C   0  0
    3.6760   -0.1150   -2.3380 O   0  0
    2.7810    1.8200   -3.0040 N   0  0
    4.5470    2.1450    0.5800 O   0  0
    3.9080    2.0760   -3.9120 C   0  0
    4.1560    3.5510   -4.0860 C   0  0
    4.5080    4.2730   -3.0100 C   0  0
   -1.6620    1.9020    1.6350 H   0  0
   -1.2340   -1.8520    1.4750 H   0  0
   -3.6780    1.7480    2.4340 H   0  0
   -4.5530   -1.4790    2.9710 H   0  0
   -3.0220   -0.7460    3.4400 H   0  0
   -3.0370   -2.1370    2.3590 H   0  0
   -1.6450    1.0390    3.4670 H   0  0
    0.0390    1.5820   -0.0160 H   0  0
    0.8340    1.6050    1.5270 H   0  0
   -0.4450   -0.6450   -1.1760 H   0  0
   -2.6500   -3.2500    0.6000 H   0  0
   -1.9630   -2.9810   -0.9630 H   0  0
   -6.3990   -1.2890   -0.4710 H   0  0
   -3.6660   -1.4160   -1.5680 H   0  0
   -4.4750   -2.7680   -0.8260 H   0  0
   -6.0160    2.1460    2.2070 H   0  0
    0.6450   -3.1060    0.1640 H   0  0
    0.2600   -2.8870   -1.5180 H   0  0
    0.8160   -0.5840    2.7700 H   0  0
    2.2710   -1.1560    1.9590 H   0  0
    0.7910   -2.1080    1.8850 H   0  0
    2.2540   -1.7870   -1.9510 H   0  0
    2.8420   -3.7340   -0.3380 H   0  0
    4.0780   -2.4880   -0.6070 H   0  0
    3.1130   -2.4790    0.8670 H   0  0
    3.1170    1.5350    1.8910 H   0  0
    2.5310    2.1660    0.3110 H   0  0
    2.0250    2.4730   -2.9300 H   0  0
    4.5200    3.0410    0.9470 H   0  0
    3.7010    1.6190   -4.8790 H   0  0
    4.8030    1.5960   -3.5160 H   0  0
    4.0760    4.1050   -5.0100 H   0  0
    4.7110    5.3340   -2.9790 H   0  0
    4.5940    3.7190   -2.0880 H   0  0
  2  1  1  0
  2  3  1  0
  2  4  1  0
  2  5  1  0
  3  6  1  0
  3  7  1  0
  3  8  1  0
  4  9  1  0
  4 10  1  0
  5 11  1  0
  5 12  1  0
  6 13  2  0
  6 14  1  0
  7 15  2  0
 10 16  1  0
 11 17  1  0
 13 18  1  0
 16 19  1  0
 16 20  1  0
 17 21  1  0
 18 22  2  0
 19 23  1  0
 19 24  1  0
 21 25  1  0
 23 26  1  0
 24 27  2  0
 24 28  1  0
 26 29  2  0
 26 30  1  0
 28 31  1  0
 30 32  1  0
 32 33  1  0
 33 34  2  0
 11 16  1  0
 12 14  1  0
 15 18  1  0
 19 21  1  0
  4 35  1  0
  5 36  1  0
  7 37  1  0
  8 38  1  0
  8 39  1  0
  8 40  1  0
  9 41  1  0
 10 42  1  0
 10 43  1  0
 11 44  1  0
 12 45  1  0
 12 46  1  0
 13 47  1  0
 14 48  1  0
 14 49  1  0
 15 50  1  0
 17 51  1  0
 17 52  1  0
 20 53  1  0
 20 54  1  0
 20 55  1  0
 21 56  1  0
 25 57  1  0
 25 58  1  0
 25 59  1  0
 28 60  1  0
 28 61  1  0
 30 62  1  0
 31 63  1  0
 32 64  1  0
 32 65  1  0
 33 66  1  0
 34 67  1  0
 34 68  1  0
M  END
> <Name>
CHEMBL498651

> <IC50 nM>
17.4

> <Molecule_ChEMBL_ID>
CHEMBL498651

> <Smiles>
C=CCNC(=O)O[C@]1(C(=O)CO)[C@@H](C)C[C@H]2[C@@H]3CCC4=CC(=O)C=C[C@]4(C)[C@@]3(F)[C@@H](O)C[C@@]21C

$$$$
CHEMBL500897
  SciTegic08162514323D

 77 81  0  0  1  0            999 V2000
   -3.4080   -0.4240   -0.6880 F   0  0
   -3.2700    0.3420    0.4530 C   0  0  2  0  0  0
   -4.7230    0.7230    0.9140 C   0  0  2  0  0  0
   -2.3650    1.5410    0.0060 C   0  0  1  0  0  0
   -2.5780   -0.5590    1.5200 C   0  0  2  0  0  0
   -5.5080   -0.5430    1.2710 C   0  0
   -5.4220    1.5820   -0.1350 C   0  0
   -4.7170    1.5490    2.2070 C   0  0
   -2.3870    2.5900    0.9550 O   0  0
   -0.8910    1.1470   -0.2620 C   0  0
   -1.1450   -0.9100    1.0800 C   0  0  1  0  0  0
   -3.3870   -1.8480    1.7700 C   0  0
   -6.7560   -0.7730    0.8090 C   0  0
   -4.8320   -1.5430    2.1890 C   0  0
   -6.6660    1.3240   -0.5840 C   0  0
   -0.2830    0.3480    0.9060 C   0  0  1  0  0  0
   -0.3200   -1.7460    2.0570 C   0  0
   -7.4240    0.1700   -0.0960 C   0  0
    1.0940   -0.3010    0.6620 C   0  0  1  0  0  0
   -0.1970    1.1800    2.1970 C   0  0
    1.1460   -1.4160    1.7300 C   0  0  1  0  0  0
   -8.5720    0.0000   -0.4300 O   0  0
    1.1090   -0.9140   -0.6210 O   0  0
    2.2560    0.6660    0.6890 C   0  0
    1.8630   -1.0120    3.0200 C   0  0
    2.3200   -1.3400   -0.9650 C   0  0
    2.0900    1.8440    0.4770 O   0  0
    3.6250    0.1190    0.9880 C   0  0
    2.9100   -2.2280   -0.3950 O   0  0
    2.8930   -0.7070   -2.0310 N   0  0
    4.2170    0.8730    2.0210 O   0  0
    4.2320   -1.1130   -2.4790 C   0  0  2  0  0  0
    4.9000   -0.0390   -3.2580 C   0  0
    4.1740   -2.4240   -3.2640 C   0  0
    6.0660    0.5720   -2.7620 C   0  0
    4.3670    0.3710   -4.4920 C   0  0
    6.6970    1.5880   -3.4980 C   0  0
    4.9980    1.3870   -5.2310 C   0  0
    6.1620    1.9960   -4.7330 C   0  0
   -2.7640    1.9710   -0.9140 H   0  0
   -2.5270   -0.0080    2.4610 H   0  0
   -4.9080    2.4420   -0.5410 H   0  0
   -5.6800    1.5160    2.7170 H   0  0
   -4.4880    2.5940    1.9960 H   0  0
   -3.9610    1.1760    2.9000 H   0  0
   -2.2500    3.4180    0.4710 H   0  0
   -0.8590    0.5410   -1.1680 H   0  0
   -0.2870    2.0290   -0.4770 H   0  0
   -1.1910   -1.4490    0.1410 H   0  0
   -3.3930   -2.4690    0.8730 H   0  0
   -2.9140   -2.4450    2.5490 H   0  0
   -7.2830   -1.6700    1.1050 H   0  0
   -5.4000   -2.4750    2.2320 H   0  0
   -4.8340   -1.1390    3.2030 H   0  0
   -7.1060    1.9830   -1.3160 H   0  0
   -0.5330   -2.8010    1.9390 H   0  0
   -0.5780   -1.4820    3.0740 H   0  0
    0.4340    2.0610    2.0700 H   0  0
    0.2190    0.5880    3.0120 H   0  0
   -1.1860    1.5200    2.5020 H   0  0
    1.6460   -2.2830    1.3280 H   0  0
    1.2380   -1.2170    3.8890 H   0  0
    2.8050   -1.5510    3.1210 H   0  0
    2.0900    0.0550    3.0160 H   0  0
    4.2580    0.1990    0.1050 H   0  0
    3.5470   -0.9140    1.3260 H   0  0
    2.3980    0.0270   -2.4960 H   0  0
    5.0960    0.4940    2.1880 H   0  0
    4.8850   -1.2150   -1.6110 H   0  0
    3.7730   -3.2400   -2.6620 H   0  0
    5.1660   -2.7150   -3.6040 H   0  0
    3.5370   -2.3180   -4.1430 H   0  0
    6.4820    0.2620   -1.8130 H   0  0
    3.4710   -0.0940   -4.8810 H   0  0
    7.5920    2.0570   -3.1170 H   0  0
    4.5880    1.7010   -6.1780 H   0  0
    6.6490    2.7770   -5.2990 H   0  0
  2  1  1  0
  2  3  1  0
  2  4  1  0
  2  5  1  0
  3  6  1  0
  3  7  1  0
  3  8  1  0
  4  9  1  0
  4 10  1  0
  5 11  1  0
  5 12  1  0
  6 13  2  0
  6 14  1  0
  7 15  2  0
 10 16  1  0
 11 17  1  0
 13 18  1  0
 16 19  1  0
 16 20  1  0
 17 21  1  0
 18 22  2  0
 19 23  1  0
 19 24  1  0
 21 25  1  0
 23 26  1  0
 24 27  2  0
 24 28  1  0
 26 29  2  0
 26 30  1  0
 28 31  1  0
 30 32  1  0
 32 33  1  0
 32 34  1  0
 33 35  2  0
 33 36  1  0
 35 37  1  0
 36 38  2  0
 37 39  2  0
 11 16  1  0
 12 14  1  0
 15 18  1  0
 19 21  1  0
 38 39  1  0
  4 40  1  0
  5 41  1  0
  7 42  1  0
  8 43  1  0
  8 44  1  0
  8 45  1  0
  9 46  1  0
 10 47  1  0
 10 48  1  0
 11 49  1  0
 12 50  1  0
 12 51  1  0
 13 52  1  0
 14 53  1  0
 14 54  1  0
 15 55  1  0
 17 56  1  0
 17 57  1  0
 20 58  1  0
 20 59  1  0
 20 60  1  0
 21 61  1  0
 25 62  1  0
 25 63  1  0
 25 64  1  0
 28 65  1  0
 28 66  1  0
 30 67  1  0
 31 68  1  0
 32 69  1  0
 34 70  1  0
 34 71  1  0
 34 72  1  0
 35 73  1  0
 36 74  1  0
 37 75  1  0
 38 76  1  0
 39 77  1  0
M  END
> <Name>
CHEMBL500897

> <IC50 nM>
1.3

> <Molecule_ChEMBL_ID>
CHEMBL500897

> <Smiles>
C[C@H](NC(=O)O[C@]1(C(=O)CO)[C@@H](C)C[C@H]2[C@@H]3CCC4=CC(=O)C=C[C@]4(C)[C@@]3(F)[C@@H](O)C[C@@]21C)c1ccccc1

$$$$
CHEMBL503041
  SciTegic08162514323D

 85 91  0  0  1  0            999 V2000
   -3.8580    0.2070   -0.3590 F   0  0
   -3.7190    0.9730    0.7810 C   0  0  2  0  0  0
   -5.1720    1.3540    1.2420 C   0  0  2  0  0  0
   -2.8150    2.1720    0.3340 C   0  0  1  0  0  0
   -3.0270    0.0740    1.8480 C   0  0  2  0  0  0
   -5.9590    0.0880    1.6000 C   0  0
   -5.8710    2.2130    0.1930 C   0  0
   -5.1660    2.1800    2.5370 C   0  0
   -2.8360    3.2210    1.2850 O   0  0
   -1.3400    1.7770    0.0680 C   0  0
   -1.5940   -0.2770    1.4080 C   0  0  1  0  0  0
   -3.8380   -1.2170    2.1000 C   0  0
   -7.2070   -0.1430    1.1390 C   0  0
   -5.2810   -0.9120    2.5180 C   0  0
   -7.1150    1.9550   -0.2540 C   0  0
   -0.7320    0.9790    1.2360 C   0  0  1  0  0  0
   -0.7700   -1.1150    2.3850 C   0  0
   -7.8750    0.8010    0.2340 C   0  0
    0.6440    0.3300    0.9920 C   0  0  1  0  0  0
   -0.6470    1.8130    2.5250 C   0  0
    0.6950   -0.7850    2.0590 C   0  0  1  0  0  0
   -9.0240    0.6310   -0.1020 O   0  0
    0.6580   -0.2830   -0.2930 O   0  0
    1.8070    1.2970    1.0180 C   0  0
    1.4140   -0.3790    3.3480 C   0  0
    1.8670   -0.7250   -0.6290 C   0  0
    2.7440    1.1250    1.7620 O   0  0
    1.7620    2.4820    0.0920 C   0  0
    2.7190   -1.0350    0.1720 O   0  0
    2.1150   -0.8160   -1.9690 N   0  0
    3.0740    2.8540   -0.2620 O   0  0
    3.4360   -1.2990   -2.4320 C   0  0
    4.5550   -0.3730   -1.8980 C   0  0
    3.4840   -1.3070   -3.9790 C   0  0
    3.6860   -2.7360   -1.9140 C   0  0
    5.9300   -0.8750   -2.3810 C   0  0  3  0  0  0
    4.8590   -1.8090   -4.4610 C   0  0  3  0  0  0
    5.0610   -3.2380   -2.3960 C   0  0  3  0  0  0
    5.9630   -0.8770   -3.9220 C   0  0
    6.1620   -2.3050   -1.8570 C   0  0
    5.0940   -3.2400   -3.9380 C   0  0
   -3.2130    2.6040   -0.5860 H   0  0
   -2.9790    0.6230    2.7890 H   0  0
   -5.3580    3.0720   -0.2130 H   0  0
   -6.1330    2.1520    3.0410 H   0  0
   -4.9300    3.2230    2.3260 H   0  0
   -4.4160    1.8030    3.2320 H   0  0
   -3.3460    3.9490    0.8950 H   0  0
   -1.3110    1.1720   -0.8380 H   0  0
   -0.7360    2.6620   -0.1460 H   0  0
   -1.6410   -0.8180    0.4710 H   0  0
   -3.8420   -1.8360    1.2030 H   0  0
   -3.3630   -1.8140    2.8770 H   0  0
   -7.7330   -1.0390    1.4360 H   0  0
   -5.8500   -1.8440    2.5610 H   0  0
   -5.2830   -0.5080    3.5310 H   0  0
   -7.5550    2.6130   -0.9880 H   0  0
   -0.9820   -2.1700    2.2680 H   0  0
   -1.0270   -0.8520    3.4020 H   0  0
   -1.6020    2.2750    2.7750 H   0  0
    0.0920    2.6070    2.4220 H   0  0
   -0.3480    1.1880    3.3670 H   0  0
    1.1970   -1.6500    1.6560 H   0  0
    0.8960   -0.7830    4.2190 H   0  0
    2.4410   -0.7400    3.3460 H   0  0
    1.4410    0.7050    3.4490 H   0  0
    1.2930    3.3280    0.5940 H   0  0
    1.2270    2.2190   -0.8220 H   0  0
    1.4060   -0.5590   -2.6250 H   0  0
    3.0060    3.6170   -0.8570 H   0  0
    4.5410   -0.3400   -0.8090 H   0  0
    4.4000    0.6520   -2.2400 H   0  0
    3.3030   -0.3070   -4.3730 H   0  0
    2.6990   -1.9450   -4.3850 H   0  0
    2.9060   -3.4120   -2.2680 H   0  0
    3.6480   -2.7660   -0.8240 H   0  0
    6.7110   -0.2170   -2.0020 H   0  0
    4.8850   -1.8130   -5.5510 H   0  0
    5.2290   -4.2500   -2.0270 H   0  0
    6.9400   -1.2050   -4.2770 H   0  0
    5.8180    0.1350   -4.3030 H   0  0
    7.1450   -2.6640   -2.1660 H   0  0
    6.1600   -2.3130   -0.7680 H   0  0
    6.0510   -3.6210   -4.2950 H   0  0
    4.3280   -3.9120   -4.3280 H   0  0
  2  1  1  0
  2  3  1  0
  2  4  1  0
  2  5  1  0
  3  6  1  0
  3  7  1  0
  3  8  1  0
  4  9  1  0
  4 10  1  0
  5 11  1  0
  5 12  1  0
  6 13  2  0
  6 14  1  0
  7 15  2  0
 10 16  1  0
 11 17  1  0
 13 18  1  0
 16 19  1  0
 16 20  1  0
 17 21  1  0
 18 22  2  0
 19 23  1  0
 19 24  1  0
 21 25  1  0
 23 26  1  0
 24 27  2  0
 24 28  1  0
 26 29  2  0
 26 30  1  0
 28 31  1  0
 30 32  1  0
 32 33  1  0
 32 34  1  0
 32 35  1  0
 33 36  1  0
 34 37  1  0
 35 38  1  0
 36 39  1  0
 36 40  1  0
 37 41  1  0
 11 16  1  0
 12 14  1  0
 15 18  1  0
 19 21  1  0
 37 39  1  0
 38 40  1  0
 38 41  1  0
  4 42  1  0
  5 43  1  0
  7 44  1  0
  8 45  1  0
  8 46  1  0
  8 47  1  0
  9 48  1  0
 10 49  1  0
 10 50  1  0
 11 51  1  0
 12 52  1  0
 12 53  1  0
 13 54  1  0
 14 55  1  0
 14 56  1  0
 15 57  1  0
 17 58  1  0
 17 59  1  0
 20 60  1  0
 20 61  1  0
 20 62  1  0
 21 63  1  0
 25 64  1  0
 25 65  1  0
 25 66  1  0
 28 67  1  0
 28 68  1  0
 30 69  1  0
 31 70  1  0
 33 71  1  0
 33 72  1  0
 34 73  1  0
 34 74  1  0
 35 75  1  0
 35 76  1  0
 36 77  1  0
 37 78  1  0
 38 79  1  0
 39 80  1  0
 39 81  1  0
 40 82  1  0
 40 83  1  0
 41 84  1  0
 41 85  1  0
M  END
> <Name>
CHEMBL503041

> <IC50 nM>
5.8

> <Molecule_ChEMBL_ID>
CHEMBL503041

> <Smiles>
C[C@H]1C[C@H]2[C@@H]3CCC4=CC(=O)C=C[C@]4(C)[C@@]3(F)[C@@H](O)C[C@]2(C)[C@@]1(OC(=O)NC12CC3CC(CC(C3)C1)C2)C(=O)CO

$$$$
CHEMBL3907029
  SciTegic08162514323D

 78 83  0  0  1  0            999 V2000
    0.7440   -5.8630    3.9730 Cl  0  0
    0.2600   -4.2230    3.8750 C   0  0
    1.1450   -3.2560    3.3580 C   0  0
   -1.0220   -3.8360    4.3090 C   0  0
    0.7480   -1.9100    3.2770 C   0  0
   -1.4160   -2.4900    4.2310 C   0  0
   -0.5310   -1.5270    3.7150 C   0  0
    1.6840   -0.8910    2.7330 C   0  0
    1.2990   -0.5570    1.4180 O   0  0
    1.8670    0.6580    0.9610 C   0  0  2  0  0  0
    1.2030    1.1110   -0.3750 C   0  0  2  0  0  0
    3.4040    0.5100    0.8300 C   0  0
   -0.2850    1.3240   -0.3220 C   0  0
    1.6370    0.1950   -1.5510 C   0  0  2  0  0  0
    3.8140   -0.3650   -0.3690 C   0  0  1  0  0  0
   -1.1110    1.0370   -1.4550 C   0  0
   -0.8930    1.8320    0.8590 C   0  0
    3.1720    0.2230   -1.6390 C   0  0  1  0  0  0
    0.9750    0.6580   -2.8520 C   0  0
    5.3090   -0.3890   -0.7910 C   0  0  2  0  0  0
    3.3460   -1.8220   -0.1660 C   0  0
   -2.5140    1.2400   -1.3730 C   0  0
   -0.5510    0.5180   -2.7300 C   0  0
   -2.2890    2.0290    0.9280 C   0  0
    3.8160   -0.6110   -2.7460 C   0  0
    6.0720   -1.2520    0.0330 O   0  0
    5.9470    0.9390   -0.7660 C   0  0
    5.2270   -0.9410   -2.2320 C   0  0
   -3.1000    1.7300   -0.1870 C   0  0
    6.4730    2.0080   -0.7380 C   0  0
   -4.5630    1.9340   -0.1130 C   0  0
    7.1190    3.3140   -0.6970 C   0  0
   -5.1760    2.8610    0.3630 O   0  0
   -5.2290    0.8870   -0.6840 N   0  0
   -6.6000    0.8830   -0.7170 C   0  0
   -7.3440   -0.2970   -0.4610 C   0  0
   -7.2890    2.0760   -1.0100 C   0  0
   -8.7090   -0.2890   -0.4980 N   0  0
   -6.6660   -1.5840   -0.1460 C   0  0
   -8.6940    2.0640   -1.0430 C   0  0
   -9.3790    0.8630   -0.7810 C   0  0
    2.1310   -3.5450    3.0220 H   0  0
   -1.7130   -4.5670    4.7070 H   0  0
   -2.3980   -2.1950    4.5670 H   0  0
   -0.8420   -0.4920    3.6580 H   0  0
    1.6330    0.0120    3.3400 H   0  0
    2.6910   -1.3050    2.6950 H   0  0
    1.6890    1.3890    1.7480 H   0  0
    1.6050    2.1030   -0.5860 H   0  0
    3.8320    0.1170    1.7520 H   0  0
    3.8140    1.5160    0.7190 H   0  0
    1.3050   -0.8260   -1.3610 H   0  0
   -0.3050    2.0840    1.7290 H   0  0
    3.4790    1.2520   -1.7730 H   0  0
    1.3260    0.0680   -3.6970 H   0  0
    1.2400    1.6950   -3.0610 H   0  0
    3.6990   -2.4770   -0.9630 H   0  0
    2.2580   -1.8770   -0.1460 H   0  0
    3.7170   -2.2170    0.7790 H   0  0
   -3.1390    1.0180   -2.2270 H   0  0
   -0.8140   -0.5370   -2.8090 H   0  0
   -1.0230    1.0140   -3.5820 H   0  0
   -2.7290    2.4060    1.8380 H   0  0
    3.8420   -0.0800   -3.6860 H   0  0
    3.2600   -1.5240   -2.9100 H   0  0
    6.9140   -1.4140   -0.4220 H   0  0
    5.9920   -0.5410   -2.8850 H   0  0
    5.3540   -2.0180   -2.2480 H   0  0
    7.2580    3.6350    0.3360 H   0  0
    6.5100    4.0530   -1.2170 H   0  0
    8.0960    3.2640   -1.1820 H   0  0
   -4.7170    0.1230   -1.0760 H   0  0
   -6.7600    2.9980   -1.2110 H   0  0
   -7.3460   -2.3970    0.1110 H   0  0
   -5.9860   -1.4410    0.6930 H   0  0
   -6.0740   -1.9040   -1.0040 H   0  0
   -9.2400    2.9670   -1.2660 H   0  0
  -10.4590    0.8530   -0.8070 H   0  0
  1  2  1  0
  2  3  2  0
  2  4  1  0
  3  5  1  0
  4  6  2  0
  5  7  2  0
  5  8  1  0
  8  9  1  0
 10  9  1  0
 10 11  1  0
 10 12  1  0
 11 13  1  0
 11 14  1  0
 12 15  1  0
 13 16  2  0
 13 17  1  0
 14 18  1  0
 14 19  1  0
 15 20  1  0
 15 21  1  0
 16 22  1  0
 16 23  1  0
 17 24  2  0
 18 25  1  0
 20 26  1  0
 20 27  1  0
 20 28  1  0
 22 29  2  0
 27 30  3  0
 29 31  1  0
 30 32  1  0
 31 33  2  0
 31 34  1  0
 34 35  1  0
 35 36  2  0
 35 37  1  0
 36 38  1  0
 36 39  1  0
 37 40  2  0
 38 41  2  0
  6  7  1  0
 15 18  1  0
 19 23  1  0
 24 29  1  0
 25 28  1  0
 40 41  1  0
  3 42  1  0
  4 43  1  0
  6 44  1  0
  7 45  1  0
  8 46  1  0
  8 47  1  0
 10 48  1  0
 11 49  1  0
 12 50  1  0
 12 51  1  0
 14 52  1  0
 17 53  1  0
 18 54  1  0
 19 55  1  0
 19 56  1  0
 21 57  1  0
 21 58  1  0
 21 59  1  0
 22 60  1  0
 23 61  1  0
 23 62  1  0
 24 63  1  0
 25 64  1  0
 25 65  1  0
 26 66  1  0
 28 67  1  0
 28 68  1  0
 32 69  1  0
 32 70  1  0
 32 71  1  0
 34 72  1  0
 37 73  1  0
 39 74  1  0
 39 75  1  0
 39 76  1  0
 40 77  1  0
 41 78  1  0
M  END
> <Name>
CHEMBL3907029

> <IC50 nM>
0.9

> <Molecule_ChEMBL_ID>
CHEMBL3907029

> <Smiles>
CC#C[C@]1(O)CC[C@H]2[C@@H]3CCc4cc(C(=O)Nc5cccnc5C)ccc4[C@H]3[C@@H](OCc3cccc(Cl)c3)C[C@@]21C

$$$$
CHEMBL2419309
  SciTegic08162514323D

 43 46  0  0  1  0            999 V2000
   -0.9530   -2.4360   -4.9650 F   0  0
   -0.3130   -1.9960   -3.8850 C   0  0
    0.7110   -2.7700   -3.3090 C   0  0
   -0.6600   -0.7560   -3.3180 C   0  0
    1.3870   -2.3030   -2.1680 C   0  0
    0.0160   -0.2910   -2.1760 C   0  0
    1.0410   -1.0630   -1.6000 C   0  0
    1.7600   -0.5680   -0.3870 C   0  0
    3.1700   -0.8130   -0.1090 C   0  0
    1.2230    0.1600    0.6070 C   0  0
    3.9730   -1.4300   -0.7730 O   0  0
    3.4530   -0.1880    1.1090 N   0  0
   -0.1900    0.6000    0.6950 C   0  0
    2.2680    0.4800    1.6600 C   0  0  1  0  0  0
    4.7540   -0.1900    1.7740 C   0  0
   -1.2270   -0.3610    0.7030 C   0  0
   -0.4920    1.9800    0.7680 C   0  0
    2.4820    1.9800    1.8400 C   0  0
   -2.5820    0.0550    0.7850 C   0  0
   -1.8400    2.4000    0.8480 C   0  0
   -3.5840   -0.8570    0.8130 N   0  0
   -2.8850    1.4470    0.8500 C   0  0
   -4.9040   -0.4770    0.7520 C   0  0
   -4.1640    1.8730    0.9280 O   0  0
   -5.7810   -1.3090    0.8130 O   0  0
   -5.2480    0.9920    0.6040 C   0  0
    0.9800   -3.7210   -3.7400 H   0  0
   -1.4450   -0.1580   -3.7560 H   0  0
    2.1720   -2.9040   -1.7320 H   0  0
   -0.2580    0.6620   -1.7480 H   0  0
    2.0000    0.0210    2.6000 H   0  0
    5.1910   -1.1800    1.9020 H   0  0
    4.6600    0.2640    2.7600 H   0  0
    5.4570    0.4120    1.1950 H   0  0
   -0.9810   -1.4120    0.6480 H   0  0
    0.2970    2.7170    0.7660 H   0  0
    3.3810    2.1740    2.4240 H   0  0
    2.5720    2.4750    0.8730 H   0  0
    1.6390    2.4300    2.3650 H   0  0
   -2.0700    3.4550    0.9040 H   0  0
   -3.3710   -1.8340    0.8830 H   0  0
   -5.5350    1.1840   -0.4320 H   0  0
   -6.1020    1.2540    1.2290 H   0  0
  1  2  1  0
  2  3  2  0
  2  4  1  0
  3  5  1  0
  4  6  2  0
  5  7  2  0
  7  8  1  0
  8  9  1  0
  8 10  2  0
  9 11  2  0
  9 12  1  0
 10 13  1  0
 10 14  1  0
 12 15  1  0
 13 16  2  0
 13 17  1  0
 14 18  1  0
 16 19  1  0
 17 20  2  0
 19 21  1  0
 19 22  2  0
 21 23  1  0
 22 24  1  0
 23 25  2  0
 23 26  1  0
  6  7  1  0
 12 14  1  0
 20 22  1  0
 24 26  1  0
  3 27  1  0
  4 28  1  0
  5 29  1  0
  6 30  1  0
 14 31  1  0
 15 32  1  0
 15 33  1  0
 15 34  1  0
 16 35  1  0
 17 36  1  0
 18 37  1  0
 18 38  1  0
 18 39  1  0
 20 40  1  0
 21 41  1  0
 26 42  1  0
 26 43  1  0
M  END
> <Name>
CHEMBL2419309

> <IC50 nM>
2100

> <Molecule_ChEMBL_ID>
CHEMBL2419309

> <Smiles>
CC1C(c2ccc3c(c2)NC(=O)CO3)=C(c2ccc(F)cc2)C(=O)N1C

$$$$
CHEMBL4562338
  SciTegic08162514323D

 79 83  0  0  1  0            999 V2000
   -6.2790   -1.0530   -2.9550 O   0  0
   -5.2460   -0.9430   -2.3360 C   0  0
   -4.6680   -2.1020   -1.6330 C   0  0
   -4.5140    0.3670   -2.2640 C   0  0
   -3.4590   -2.0630   -1.0270 C   0  0
   -3.0000    0.1330   -2.2150 C   0  0
   -2.5640   -0.8260   -1.0760 C   0  0  2  0  0  0
   -2.9690   -3.2660   -0.2460 C   0  0
   -1.0610   -1.2150   -1.2790 C   0  0  1  0  0  0
   -2.7990   -0.1450    0.2810 C   0  0
   -1.4960   -3.5900   -0.5000 C   0  0
   -0.0550   -0.0200   -1.3320 C   0  0  1  0  0  0
   -0.6040   -2.3520   -0.3280 C   0  0  1  0  0  0
   -0.1560    0.9120   -0.1800 C   0  0
    1.4040   -0.4920   -1.5350 C   0  0
    0.8500   -2.7420   -0.6580 C   0  0  1  0  0  0
    0.0390    2.2910   -0.3690 C   0  0
   -0.4470    0.4140    1.1040 C   0  0
    1.8240   -1.5650   -0.5100 C   0  0  1  0  0  0
    1.5000   -3.8090    0.2290 C   0  0
   -0.0570    3.1740    0.7210 C   0  0
   -0.5430    1.2950    2.1950 C   0  0
    3.1900   -2.2790   -0.7090 C   0  0  2  0  0  0
    1.7620   -1.0200    0.9320 C   0  0
    3.0120   -3.5590    0.1370 C   0  0
   -0.3480    2.6780    2.0060 C   0  0
    4.2640   -1.4980   -0.2130 O   0  0
    3.4810   -2.6020   -2.1150 C   0  0
   -0.4410    3.5350    3.0680 N   0  0
    3.7310   -2.8590   -3.2500 C   0  0
    0.0980    4.9000    2.9880 C   0  0
   -1.0880    3.0960    4.3150 C   0  0
    4.0470   -3.1600   -4.6450 C   0  0
    1.6020    4.8810    2.7210 C   0  0
    2.0270    6.2070    2.4920 O   0  0
    3.4080    6.3090    2.2270 C   0  0
   -5.2460   -3.0120   -1.6000 H   0  0
   -4.7700    0.9860   -3.1230 H   0  0
   -4.8380    0.9100   -1.3770 H   0  0
   -2.4940    1.0940   -2.1190 H   0  0
   -2.6840   -0.2770   -3.1760 H   0  0
   -3.1090   -3.0610    0.8160 H   0  0
   -3.5780   -4.1430   -0.4670 H   0  0
   -1.0080   -1.6540   -2.2790 H   0  0
   -3.8610   -0.0310    0.5000 H   0  0
   -2.3480    0.8480    0.2990 H   0  0
   -2.3540   -0.7290    1.0880 H   0  0
   -1.1840   -4.3830    0.1800 H   0  0
   -1.3870   -3.9880   -1.5100 H   0  0
   -0.3050    0.5880   -2.2010 H   0  0
   -0.6700   -2.0120    0.7070 H   0  0
    2.0980    0.3500   -1.5020 H   0  0
    1.4820   -0.8930   -2.5490 H   0  0
    0.8710   -3.1000   -1.6800 H   0  0
    0.2640    2.6780   -1.3540 H   0  0
   -0.5980   -0.6450    1.2540 H   0  0
    1.1700   -3.7030    1.2520 H   0  0
    1.2340   -4.8070   -0.0920 H   0  0
    0.0980    4.2310    0.5550 H   0  0
   -0.7680    0.8950    3.1740 H   0  0
    0.8960   -1.4020    1.4730 H   0  0
    1.7010    0.0680    0.9300 H   0  0
    2.6560   -1.3030    1.4880 H   0  0
    3.3980   -3.4280    1.1390 H   0  0
    3.5310   -4.4140   -0.2730 H   0  0
    4.1020   -0.5820   -0.4840 H   0  0
   -0.4280    5.4470    2.2050 H   0  0
   -0.1210    5.4280    3.9180 H   0  0
   -1.4880    2.0820    4.2890 H   0  0
   -1.9100    3.7730    4.5490 H   0  0
   -0.3670    3.1500    5.1310 H   0  0
    5.0180   -3.6520   -4.7130 H   0  0
    4.0820   -2.2420   -5.2310 H   0  0
    3.2910   -3.8180   -5.0700 H   0  0
    2.1430    4.4960    3.5840 H   0  0
    1.8260    4.2950    1.8280 H   0  0
    3.6190    7.3340    1.9240 H   0  0
    3.9490    5.9340    3.0960 H   0  0
    3.6410    5.6580    1.3830 H   0  0
  1  2  2  0
  2  3  1  0
  2  4  1  0
  3  5  2  0
  4  6  1  0
  5  7  1  0
  5  8  1  0
  7  9  1  0
  7 10  1  0
  8 11  1  0
  9 12  1  0
  9 13  1  0
 12 14  1  0
 12 15  1  0
 13 16  1  0
 14 17  2  0
 14 18  1  0
 15 19  1  0
 16 20  1  0
 17 21  1  0
 18 22  2  0
 19 23  1  0
 19 24  1  0
 20 25  1  0
 21 26  2  0
 23 27  1  0
 23 28  1  0
 26 29  1  0
 28 30  3  0
 29 31  1  0
 29 32  1  0
 30 33  1  0
 31 34  1  0
 34 35  1  0
 35 36  1  0
  6  7  1  0
 13 11  1  0
 16 19  1  0
 22 26  1  0
 23 25  1  0
  3 37  1  0
  4 38  1  0
  4 39  1  0
  6 40  1  0
  6 41  1  0
  8 42  1  0
  8 43  1  0
  9 44  1  0
 10 45  1  0
 10 46  1  0
 10 47  1  0
 11 48  1  0
 11 49  1  0
 12 50  1  0
 13 51  1  0
 15 52  1  0
 15 53  1  0
 16 54  1  0
 17 55  1  0
 18 56  1  0
 20 57  1  0
 20 58  1  0
 21 59  1  0
 22 60  1  0
 24 61  1  0
 24 62  1  0
 24 63  1  0
 25 64  1  0
 25 65  1  0
 27 66  1  0
 31 67  1  0
 31 68  1  0
 32 69  1  0
 32 70  1  0
 32 71  1  0
 33 72  1  0
 33 73  1  0
 33 74  1  0
 34 75  1  0
 34 76  1  0
 36 77  1  0
 36 78  1  0
 36 79  1  0
M  END
> <Name>
CHEMBL4562338

> <IC50 nM>
52.1

> <Molecule_ChEMBL_ID>
CHEMBL4562338

> <Smiles>
CC#C[C@]1(O)CC[C@H]2[C@@H]3CCC4=CC(=O)CC[C@]4(C)[C@H]3[C@@H](c3ccc(N(C)CCOC)cc3)C[C@@]21C

$$$$
CHEMBL4217597
  SciTegic08162514323D

 61 65  0  0  1  0            999 V2000
   -1.2680    2.9590    2.4630 F   0  0
   -0.8770    1.7150    2.2010 C   0  0
   -0.2010    0.9690    3.1840 C   0  0
   -1.1410    1.1440    0.9430 C   0  0
    0.2110   -0.3480    2.9060 C   0  0
   -0.7250   -0.1700    0.6660 C   0  0
    0.8500   -1.0530    3.8380 F   0  0
   -0.0490   -0.9160    1.6480 C   0  0
   -1.0020   -0.7720   -0.6660 C   0  0  1  0  0  0
    0.1580   -1.4450   -1.1310 O   0  0
   -2.1720   -1.7540   -0.6070 C   0  0  1  0  0  0
    1.2970   -0.7420   -1.2330 C   0  0
   -3.3010   -1.1840    0.1410 N   0  0
   -2.6150   -2.2270   -1.9920 C   0  0  1  0  0  0
    2.5450   -1.4200   -1.2620 C   0  0
    1.2460    0.6760   -1.3110 C   0  0
   -3.7830   -1.8460    1.2340 C   0  0
   -1.5040   -2.8110   -2.6370 O   0  0
   -3.7320   -3.2700   -1.9320 C   0  0
    3.7420   -0.6640   -1.3710 C   0  0
    2.4450    1.4240   -1.4180 C   0  0
   -3.2850   -2.8890    1.5860 O   0  0
   -4.9000   -1.2830    1.9780 C   0  0
    3.6680    0.7150   -1.4430 C   0  0
    4.9940   -1.2520   -1.4060 C   0  0
   -5.3930   -1.9440    3.0860 O   0  0
   -5.6060   -0.1560    1.7830 N   0  0
    4.9750    1.0680   -1.5350 N   0  0
    5.7250   -0.0860   -1.5100 N   0  0
   -6.4300   -1.1510    3.5390 C   0  0
   -6.5330   -0.0760    2.7320 N   0  0
    5.4730    2.3300   -1.6310 C   0  0
   -7.3090   -1.4280    4.7400 C   0  0
    6.5040    2.6130   -2.5470 C   0  0
    4.9570    3.3570   -0.8160 C   0  0
    7.0180    3.9180   -2.6470 C   0  0
    5.4730    4.6600   -0.9180 C   0  0
    6.5040    4.9410   -1.8340 C   0  0
    6.9920    6.1760   -1.9280 F   0  0
    0.0000    1.4060    4.1500 H   0  0
   -1.6600    1.7170    0.1890 H   0  0
    0.2710   -1.9260    1.4360 H   0  0
   -1.2460    0.0150   -1.3770 H   0  0
   -1.8670   -2.6900   -0.1390 H   0  0
   -3.7150   -0.3200   -0.1490 H   0  0
   -2.9530   -1.3850   -2.5960 H   0  0
    2.5720   -2.4980   -1.2030 H   0  0
    0.2950    1.1850   -1.2870 H   0  0
   -1.7520   -2.9490   -3.5630 H   0  0
   -3.9750   -3.6330   -2.9300 H   0  0
   -3.4400   -4.1120   -1.3070 H   0  0
   -4.6390   -2.8380   -1.5040 H   0  0
    2.4200    2.5040   -1.4770 H   0  0
    5.3460   -2.2760   -1.3670 H   0  0
   -8.0680   -0.6680    4.9220 H   0  0
   -6.6900   -1.5000    5.6330 H   0  0
   -7.8150   -2.3830    4.6050 H   0  0
    6.9120    1.8380   -3.1820 H   0  0
    4.1660    3.1600   -0.1070 H   0  0
    7.8110    4.1290   -3.3520 H   0  0
    5.0740    5.4450   -0.2910 H   0  0
  1  2  1  0
  2  3  2  0
  2  4  1  0
  3  5  1  0
  4  6  2  0
  5  7  1  0
  5  8  2  0
  6  9  1  0
  9 10  1  0
  9 11  1  0
 10 12  1  0
 11 13  1  0
 11 14  1  0
 12 15  2  0
 12 16  1  0
 13 17  1  0
 14 18  1  0
 14 19  1  0
 15 20  1  0
 16 21  2  0
 17 22  2  0
 17 23  1  0
 20 24  2  0
 20 25  1  0
 23 26  1  0
 23 27  2  0
 24 28  1  0
 25 29  2  0
 26 30  1  0
 27 31  1  0
 28 32  1  0
 30 33  1  0
 32 34  2  0
 32 35  1  0
 34 36  1  0
 35 37  2  0
 36 38  2  0
 38 39  1  0
  6  8  1  0
 21 24  1  0
 28 29  1  0
 30 31  2  0
 37 38  1  0
  3 40  1  0
  4 41  1  0
  8 42  1  0
  9 43  1  0
 11 44  1  0
 13 45  1  0
 14 46  1  0
 15 47  1  0
 16 48  1  0
 18 49  1  0
 19 50  1  0
 19 51  1  0
 19 52  1  0
 21 53  1  0
 25 54  1  0
 33 55  1  0
 33 56  1  0
 33 57  1  0
 34 58  1  0
 35 59  1  0
 36 60  1  0
 37 61  1  0
M  END
> <Name>
CHEMBL4217597

> <IC50 nM>
1.6

> <Molecule_ChEMBL_ID>
CHEMBL4217597

> <Smiles>
Cc1nnc(C(=O)N[C@@H]([C@H](C)O)[C@H](Oc2ccc3c(cnn3-c3ccc(F)cc3)c2)c2cc(F)cc(F)c2)o1

$$$$
CHEMBL231806
  SciTegic08162514323D

 40 42  0  0  1  0            999 V2000
    3.2770   -1.7480    5.9200 Cl  0  0
    2.3580   -2.0650    4.5080 C   0  0
    3.0060   -2.3890    3.3010 C   0  0
    0.9510   -2.0000    4.5550 C   0  0
    2.2500   -2.6500    2.1450 C   0  0
    0.1970   -2.2620    3.3970 C   0  0
    0.8480   -2.5860    2.1930 C   0  0
   -0.0780   -2.9080    0.7730 S   0  0
   -1.4530   -2.5060    1.0230 O   0  0
    0.0550   -4.3180    0.4510 O   0  0
    0.4240   -2.0410   -0.6480 N   0  0
    0.2400   -0.6000   -0.6680 C   0  0  2  0  0  0
    0.4180   -0.0570   -2.0860 C   0  0
    1.1680    0.0740    0.3420 C   0  0
   -0.0120    1.3930   -2.1780 C   0  0
   -1.2710    1.8850   -2.2150 C   0  0
    0.8340    2.5180   -2.2420 C   0  0
   -1.2970    3.2540   -2.2990 C   0  0
   -2.4710    1.1290   -2.1740 C   0  0
    0.0220    3.6780   -2.3180 N   0  0
   -2.5160    3.9710   -2.3480 C   0  0
   -3.7070    1.8220   -2.2210 C   0  0
   -3.7300    3.2400   -2.3090 C   0  0
    4.0840   -2.4380    3.2500 H   0  0
    0.4400   -1.7520    5.4730 H   0  0
    2.7500   -2.9000    1.2210 H   0  0
   -0.8810   -2.2110    3.4340 H   0  0
    1.4160   -2.2420   -0.8400 H   0  0
   -0.8010   -0.5160   -0.3520 H   0  0
   -0.1520   -0.6500   -2.8010 H   0  0
    1.4570   -0.1480   -2.4060 H   0  0
    0.9120   -0.2250    1.3590 H   0  0
    2.2070   -0.1900    0.1450 H   0  0
    1.0820    1.1580    0.2830 H   0  0
    1.9160    2.5350   -2.2380 H   0  0
   -2.4530    0.0510   -2.1070 H   0  0
    0.3440    4.6150   -2.3730 H   0  0
   -2.5230    5.0490   -2.4140 H   0  0
   -4.6350    1.2700   -2.1910 H   0  0
   -4.6760    3.7620   -2.3440 H   0  0
  1  2  1  0
  2  3  2  0
  2  4  1  0
  3  5  1  0
  4  6  2  0
  5  7  2  0
  7  8  1  0
  8  9  2  0
  8 10  2  0
  8 11  1  0
 11 12  1  0
 12 13  1  0
 12 14  1  0
 13 15  1  0
 15 16  1  0
 15 17  2  0
 16 18  1  0
 16 19  2  0
 17 20  1  0
 18 21  2  0
 19 22  1  0
 21 23  1  0
  6  7  1  0
 18 20  1  0
 22 23  2  0
  3 24  1  0
  4 25  1  0
  5 26  1  0
  6 27  1  0
 11 28  1  0
 12 29  1  0
 13 30  1  0
 13 31  1  0
 14 32  1  0
 14 33  1  0
 14 34  1  0
 17 35  1  0
 19 36  1  0
 20 37  1  0
 21 38  1  0
 22 39  1  0
 23 40  1  0
M  END
> <Name>
CHEMBL231806

> <IC50 nM>
2100

> <Molecule_ChEMBL_ID>
CHEMBL231806

> <Smiles>
CC(Cc1c[nH]c2ccccc12)NS(=O)(=O)c1ccc(Cl)cc1

$$$$
CHEMBL430192
  SciTegic08162514323D

 43 45  0  0  1  0            999 V2000
    2.4080   -4.5100    1.9300 Cl  0  0
    1.6040   -3.3260    2.8790 C   0  0
    0.4320   -2.6990    2.4080 C   0  0
    2.1250   -2.9790    4.1390 C   0  0
   -0.2150   -3.1250    0.8570 S   0  0
   -0.2150   -1.7280    3.1990 C   0  0
    1.4810   -2.0120    4.9300 C   0  0
   -1.6350   -2.8200    0.8570 O   0  0
    0.0700   -4.5270    0.6130 O   0  0
    0.4630   -2.2560   -0.4880 N   0  0
   -1.6430   -0.9530    2.6450 Cl  0  0
    0.3130   -1.3870    4.4590 C   0  0
    2.1170   -1.5960    6.4670 Cl  0  0
    0.2870   -0.8120   -0.5270 C   0  0  2  0  0  0
    0.3580   -0.3050   -1.9670 C   0  0
    1.2950   -0.1250    0.3930 C   0  0
   -0.0700    1.1470   -2.0590 C   0  0
   -1.3300    1.6410   -2.0960 C   0  0
    0.7740    2.2720   -2.1250 C   0  0
   -1.3530    3.0100   -2.1800 C   0  0
   -2.5290    0.8870   -2.0550 C   0  0
   -0.0330    3.4340   -2.1990 N   0  0
    2.2870    2.3150   -2.1190 C   0  0
   -2.5700    3.7290   -2.2290 C   0  0
   -3.7680    1.5800   -2.1040 C   0  0
   -3.7870    2.9980   -2.1900 C   0  0
    3.0260   -3.4570    4.5020 H   0  0
    1.4710   -2.4570   -0.5550 H   0  0
   -0.1820   -0.6410    5.0680 H   0  0
   -0.7250   -0.7150   -0.1330 H   0  0
   -0.2710   -0.9100   -2.6210 H   0  0
    1.3670   -0.4120   -2.3650 H   0  0
    1.1820   -0.4730    1.4180 H   0  0
    2.3150   -0.3200    0.0610 H   0  0
    1.1450    0.9550    0.3870 H   0  0
   -2.5140   -0.1930   -1.9880 H   0  0
    0.2870    4.3710   -2.2540 H   0  0
    2.7640    1.3380   -2.0430 H   0  0
    2.6310    2.9200   -1.2810 H   0  0
    2.6410    2.7870   -3.0370 H   0  0
   -2.5780    4.8070   -2.2970 H   0  0
   -4.6930    1.0270   -2.0720 H   0  0
   -4.7300    3.5220   -2.2270 H   0  0
  1  2  1  0
  2  3  2  0
  2  4  1  0
  3  5  1  0
  3  6  1  0
  4  7  2  0
  5  8  2  0
  5  9  2  0
  5 10  1  0
  6 11  1  0
  6 12  2  0
  7 13  1  0
 10 14  1  0
 14 15  1  0
 14 16  1  0
 15 17  1  0
 17 18  1  0
 17 19  2  0
 18 20  1  0
 18 21  2  0
 19 22  1  0
 19 23  1  0
 20 24  2  0
 21 25  1  0
 24 26  1  0
  7 12  1  0
 20 22  1  0
 25 26  2  0
  4 27  1  0
 10 28  1  0
 12 29  1  0
 14 30  1  0
 15 31  1  0
 15 32  1  0
 16 33  1  0
 16 34  1  0
 16 35  1  0
 21 36  1  0
 22 37  1  0
 23 38  1  0
 23 39  1  0
 23 40  1  0
 24 41  1  0
 25 42  1  0
 26 43  1  0
M  END
> <Name>
CHEMBL430192

> <IC50 nM>
570

> <Molecule_ChEMBL_ID>
CHEMBL430192

> <Smiles>
Cc1[nH]c2ccccc2c1CC(C)NS(=O)(=O)c1c(Cl)cc(Cl)cc1Cl

$$$$
CHEMBL385450
  SciTegic08162514323D

 65 68  0  0  1  0            999 V2000
    4.0000   -0.3050    0.7270 F   0  0
    2.9630   -0.5680    1.5840 C   0  0
    3.0000   -1.8890    1.9550 F   0  0
    3.0780    0.2230    2.6990 F   0  0
    1.6350   -0.2730    0.8850 C   0  0  3  0  0  0
    1.8480   -0.3260   -0.5080 O   0  0
    1.0780    1.0740    1.2580 C   0  0
    0.5430   -1.2830    1.2400 C   0  0
    1.7560    1.8910    1.8340 O   0  0
   -0.2170    1.3610    0.9300 N   0  0
    0.1700   -2.1910    0.0590 C   0  0  3  0  0  0
   -0.7400    2.5550    1.2480 C   0  0
    1.2340   -3.2210   -0.1700 C   0  0
   -1.2130   -2.8130    0.3630 C   0  0
    0.0590   -1.3240   -1.2030 C   0  0
   -0.3300    3.7250    0.5550 C   0  0
   -1.7110    2.6580    2.2810 C   0  0
    0.9220   -4.6060   -0.3670 C   0  0
    2.5960   -2.8140   -0.2110 C   0  0
   -1.5190   -3.9980   -0.5550 C   0  0
   -1.1580   -1.6800   -2.0570 C   0  0
   -0.8850    4.9840    0.8990 C   0  0
   -2.2680    3.9140    2.6210 C   0  0
    1.9670   -5.5370   -0.5880 C   0  0
   -0.4780   -5.1020   -0.3420 C   0  0
    3.6290   -3.7520   -0.4300 C   0  0
   -1.5860   -0.5370   -2.9780 C   0  0
   -1.8480    5.0720    1.9240 C   0  0
   -0.4800    6.2360    0.1950 C   0  0
    3.3150   -5.1150   -0.6170 C   0  0
   -2.5760    0.4200   -2.3100 C   0  0
   -2.3950    6.4220    2.2360 C   0  0
   -1.0040    7.3670    0.5310 N   0  0
    0.5430    6.2170   -0.9100 C   0  0
   -3.2270    6.5940    3.1000 O   0  0
   -2.0060    7.5410    1.5820 O   0  0
    2.0940    0.5680   -0.7930 H   0  0
    0.8360   -1.8790    2.1060 H   0  0
   -0.3380   -0.7750    1.6310 H   0  0
   -0.7730    0.6840    0.4510 H   0  0
   -1.9960   -2.0590    0.2740 H   0  0
   -1.2520   -3.1580    1.3990 H   0  0
    0.0510   -0.2660   -0.9430 H   0  0
    0.9750   -1.3830   -1.7910 H   0  0
    0.4060    3.6580   -0.2320 H   0  0
   -2.0370    1.7790    2.8200 H   0  0
    2.8580   -1.7750   -0.0740 H   0  0
   -2.5200   -4.3850   -0.3500 H   0  0
   -1.5210   -3.6720   -1.5960 H   0  0
   -0.9750   -2.5880   -2.6310 H   0  0
   -1.9880   -2.0020   -1.4300 H   0  0
   -3.0040    3.9790    3.4080 H   0  0
    1.7400   -6.5840   -0.7360 H   0  0
   -0.6520   -5.5780    0.6250 H   0  0
   -0.6190   -5.8750   -1.0980 H   0  0
    4.6580   -3.4280   -0.4530 H   0  0
   -0.7170    0.0060   -3.3480 H   0  0
   -1.9960   -0.9240   -3.9100 H   0  0
    4.1040   -5.8340   -0.7850 H   0  0
   -2.9020    1.1880   -3.0120 H   0  0
   -3.4470   -0.1230   -1.9430 H   0  0
   -2.1130    0.9200   -1.4590 H   0  0
    0.7540    7.2010   -1.3280 H   0  0
    0.1970    5.5780   -1.7250 H   0  0
    1.4830    5.8050   -0.5410 H   0  0
  1  2  1  0
  2  3  1  0
  2  4  1  0
  2  5  1  0
  5  6  1  0
  5  7  1  0
  5  8  1  0
  7  9  2  0
  7 10  1  0
  8 11  1  0
 10 12  1  0
 11 13  1  0
 11 14  1  0
 11 15  1  0
 12 16  2  0
 12 17  1  0
 13 18  2  0
 13 19  1  0
 14 20  1  0
 15 21  1  0
 16 22  1  0
 17 23  2  0
 18 24  1  0
 18 25  1  0
 19 26  2  0
 21 27  1  0
 22 28  2  0
 22 29  1  0
 24 30  2  0
 27 31  1  0
 28 32  1  0
 29 33  2  0
 29 34  1  0
 32 35  2  0
 32 36  1  0
 20 25  1  0
 23 28  1  0
 26 30  1  0
 33 36  1  0
  6 37  1  0
  8 38  1  0
  8 39  1  0
 10 40  1  0
 14 41  1  0
 14 42  1  0
 15 43  1  0
 15 44  1  0
 16 45  1  0
 17 46  1  0
 19 47  1  0
 20 48  1  0
 20 49  1  0
 21 50  1  0
 21 51  1  0
 23 52  1  0
 24 53  1  0
 25 54  1  0
 25 55  1  0
 26 56  1  0
 27 57  1  0
 27 58  1  0
 30 59  1  0
 31 60  1  0
 31 61  1  0
 31 62  1  0
 34 63  1  0
 34 64  1  0
 34 65  1  0
M  END
> <Name>
CHEMBL385450

> <IC50 nM>
3.09

> <Molecule_ChEMBL_ID>
CHEMBL385450

> <Smiles>
CCCCC1(CC(O)(C(=O)Nc2ccc3c(=O)onc(C)c3c2)C(F)(F)F)CCCc2ccccc21

$$$$
CHEMBL214333
  SciTegic08162514323D

 57 60  0  0  1  0            999 V2000
    2.2680    0.6270    1.8930 F   0  0
    1.2660    1.3050    2.5370 C   0  0
    1.5160    1.3150    3.8850 F   0  0
    1.2110    2.5920    2.0720 F   0  0
   -0.0720    0.6100    2.2740 C   0  0  3  0  0  0
   -0.5370    0.0720    3.4880 O   0  0
    0.0450   -0.4880    1.2500 C   0  0
   -1.1370    1.5670    1.7340 C   0  0
    1.1050   -0.7500    0.7360 O   0  0
   -1.0780   -1.1870    0.9080 N   0  0
   -0.8710    1.9900    0.2830 C   0  0  3  0  0  0
   -1.0060   -2.1720    0.0000 C   0  0
    0.4840    2.6150    0.2130 C   0  0
   -1.9670    2.9810   -0.1700 C   0  0
   -0.9490    0.7460   -0.6150 C   0  0
    0.1330   -3.0170   -0.0470 C   0  0
   -2.0660   -2.3750   -0.9200 C   0  0
    0.6250    4.0330    0.0980 C   0  0
    1.6540    1.8090    0.2680 C   0  0
   -1.7400    4.3690    0.4410 C   0  0
   -1.1150    1.0960   -2.0940 C   0  0
    0.2070   -4.0570   -1.0120 C   0  0
   -1.9960   -3.4120   -1.8830 C   0  0
   -0.4470    4.8540    0.0720 O   0  0
    1.9140    4.6100    0.0000 C   0  0
    2.9380    2.3970    0.1820 C   0  0
   -0.8550   -4.2480   -1.9200 C   0  0
    1.3870   -4.9650   -1.0980 C   0  0
    3.0660    3.7950    0.0450 C   0  0
   -0.7210   -5.3550   -2.9060 C   0  0
    1.4220   -5.9000   -1.9860 N   0  0
    2.5570   -4.8180   -0.1580 C   0  0
   -1.5800   -5.5960   -3.7230 O   0  0
    0.3650   -6.1620   -2.9590 O   0  0
   -1.4220   -0.2910    3.3220 H   0  0
   -2.1310    1.1310    1.8320 H   0  0
   -1.2320    2.4400    2.3790 H   0  0
   -1.9550   -0.9670    1.3380 H   0  0
   -2.9570    2.6080    0.1000 H   0  0
   -1.9610    3.0740   -1.2580 H   0  0
   -0.0780    0.1080   -0.4650 H   0  0
   -1.7480    0.0820   -0.2830 H   0  0
    0.9470   -2.8730    0.6480 H   0  0
   -2.9430   -1.7420   -0.9020 H   0  0
    1.5720    0.7360    0.3730 H   0  0
   -1.7970    4.3260    1.5290 H   0  0
   -2.4880    5.0840    0.1000 H   0  0
   -1.0410    0.2010   -2.7130 H   0  0
   -2.0800    1.5720   -2.2710 H   0  0
   -0.3380    1.7890   -2.4160 H   0  0
   -2.8130   -3.5570   -2.5760 H   0  0
    2.0180    5.6800   -0.1030 H   0  0
    3.8180    1.7740    0.2230 H   0  0
    4.0470    4.2420   -0.0270 H   0  0
    3.3540   -5.5390   -0.3400 H   0  0
    2.2230   -4.9410    0.8730 H   0  0
    2.9820   -3.8180   -0.2520 H   0  0
  1  2  1  0
  2  3  1  0
  2  4  1  0
  2  5  1  0
  5  6  1  0
  5  7  1  0
  5  8  1  0
  7  9  2  0
  7 10  1  0
  8 11  1  0
 10 12  1  0
 11 13  1  0
 11 14  1  0
 11 15  1  0
 12 16  2  0
 12 17  1  0
 13 18  2  0
 13 19  1  0
 14 20  1  0
 15 21  1  0
 16 22  1  0
 17 23  2  0
 18 24  1  0
 18 25  1  0
 19 26  2  0
 22 27  2  0
 22 28  1  0
 25 29  2  0
 27 30  1  0
 28 31  2  0
 28 32  1  0
 30 33  2  0
 30 34  1  0
 20 24  1  0
 23 27  1  0
 26 29  1  0
 31 34  1  0
  6 35  1  0
  8 36  1  0
  8 37  1  0
 10 38  1  0
 14 39  1  0
 14 40  1  0
 15 41  1  0
 15 42  1  0
 16 43  1  0
 17 44  1  0
 19 45  1  0
 20 46  1  0
 20 47  1  0
 21 48  1  0
 21 49  1  0
 21 50  1  0
 23 51  1  0
 25 52  1  0
 26 53  1  0
 29 54  1  0
 32 55  1  0
 32 56  1  0
 32 57  1  0
M  END
> <Name>
CHEMBL214333

> <IC50 nM>
16.6

> <Molecule_ChEMBL_ID>
CHEMBL214333

> <Smiles>
CCC1(CC(O)(C(=O)Nc2ccc3c(=O)onc(C)c3c2)C(F)(F)F)CCOc2ccccc21

$$$$
CHEMBL235591
  SciTegic08162514323D

 54 57  0  0  1  0            999 V2000
    1.6150    1.6370    2.3340 F   0  0
    0.3830    1.8520    1.7750 C   0  0
   -0.5720    1.8590    2.7600 F   0  0
    0.3790    3.0610    1.1270 F   0  0
    0.0740    0.7380    0.7750 C   0  0  3  0  0  0
    1.0490    0.7730   -0.2400 O   0  0
   -1.3010    0.8930    0.1250 C   0  0
    0.2230   -0.5820    1.5330 C   0  0
   -1.2460    1.8320   -1.0160 N   0  0
    0.2070   -1.8050    0.6030 C   0  0  3  0  0  0
   -1.5680    3.1560   -0.8650 C   0  0
   -0.8520    1.3140   -2.2360 C   0  0
    1.5140   -2.5350    0.6640 C   0  0
   -0.9880   -2.6930    1.0180 C   0  0
   -0.0080   -1.3160   -0.8340 C   0  0
   -1.5060    4.0410   -1.9880 C   0  0
   -1.9710    3.6880    0.3940 C   0  0
   -0.7640    2.0720   -3.3500 C   0  0
    1.5780   -3.9630    0.7480 C   0  0
    2.7290   -1.7950    0.6210 C   0  0
   -0.9200   -4.0680    0.3530 C   0  0
   -1.0900    3.5140   -3.3200 C   0  0
   -1.8360    5.4120   -1.8480 C   0  0
   -2.2970    5.0570    0.5290 C   0  0
    2.8420   -4.6090    0.7970 C   0  0
    0.3520   -4.8030    0.7950 C   0  0
    3.9790   -2.4490    0.6720 C   0  0
   -0.9920    4.1270   -4.3600 O   0  0
   -2.2300    5.9160   -0.5900 C   0  0
    4.0350   -3.8580    0.7600 C   0  0
    1.9120    0.8710    0.1930 H   0  0
   -2.0330    1.2500    0.8500 H   0  0
   -1.6740   -0.0700   -0.2230 H   0  0
    1.1230   -0.5740    2.1460 H   0  0
   -0.5450   -0.6740    2.3030 H   0  0
   -0.5980    0.2680   -2.3380 H   0  0
   -1.9300   -2.2030    0.7680 H   0  0
   -0.9980   -2.8300    2.1020 H   0  0
    0.8950   -1.4610   -1.4300 H   0  0
   -0.8320   -1.8520   -1.3050 H   0  0
   -0.2500   -0.2540   -0.8480 H   0  0
   -2.0350    3.0630    1.2730 H   0  0
   -0.4490    1.6150   -4.2770 H   0  0
    2.7090   -0.7190    0.5490 H   0  0
   -0.9340   -3.9570   -0.7310 H   0  0
   -1.7990   -4.6580    0.6150 H   0  0
   -1.7890    6.0800   -2.6950 H   0  0
   -2.6000    5.4450    1.4900 H   0  0
    2.8970   -5.6860    0.8630 H   0  0
    0.2250   -5.1520    1.8200 H   0  0
    0.4820   -5.6950    0.1800 H   0  0
    4.8930   -1.8730    0.6430 H   0  0
   -2.4800    6.9610   -0.4830 H   0  0
    4.9920   -4.3580    0.7990 H   0  0
  1  2  1  0
  2  3  1  0
  2  4  1  0
  2  5  1  0
  5  6  1  0
  5  7  1  0
  5  8  1  0
  7  9  1  0
  8 10  1  0
  9 11  1  0
  9 12  1  0
 10 13  1  0
 10 14  1  0
 10 15  1  0
 11 16  2  0
 11 17  1  0
 12 18  2  0
 13 19  2  0
 13 20  1  0
 14 21  1  0
 16 22  1  0
 16 23  1  0
 17 24  2  0
 19 25  1  0
 19 26  1  0
 20 27  2  0
 22 28  2  0
 23 29  2  0
 25 30  2  0
 18 22  1  0
 21 26  1  0
 24 29  1  0
 27 30  1  0
  6 31  1  0
  7 32  1  0
  7 33  1  0
  8 34  1  0
  8 35  1  0
 12 36  1  0
 14 37  1  0
 14 38  1  0
 15 39  1  0
 15 40  1  0
 15 41  1  0
 17 42  1  0
 18 43  1  0
 20 44  1  0
 21 45  1  0
 21 46  1  0
 23 47  1  0
 24 48  1  0
 25 49  1  0
 26 50  1  0
 26 51  1  0
 27 52  1  0
 29 53  1  0
 30 54  1  0
M  END
> <Name>
CHEMBL235591

> <IC50 nM>
34.67

> <Molecule_ChEMBL_ID>
CHEMBL235591

> <Smiles>
CC1(CC(O)(Cn2ccc(=O)c3ccccc32)C(F)(F)F)CCCc2ccccc21

$$$$
CHEMBL4162539
  SciTegic08162514323D

 80 85  0  0  1  0            999 V2000
   -4.6540   -0.8220    3.6740 O   0  0
   -4.0310   -0.4860    2.6840 C   0  0
   -4.0700    0.9140    2.2420 C   0  0
   -3.2090   -1.4980    1.9200 C   0  0
   -3.1660    1.4120    1.3810 C   0  0
   -2.3030   -0.9340    0.8130 C   0  0
   -2.0860    0.5700    0.8300 C   0  0
   -3.2050    2.8670    0.9730 C   0  0
   -0.9410    1.1390    0.3690 C   0  0
   -1.8130    3.4570    1.1990 C   0  0
    0.2320    0.3140   -0.1700 C   0  0  1  0  0  0
   -0.7340    2.6540    0.4410 C   0  0  1  0  0  0
   -0.1480   -0.5720   -1.3120 C   0  0
    1.4940    1.1370   -0.5450 C   0  0
    0.6040    2.8300    1.1720 C   0  0  1  0  0  0
   -0.8730   -0.0510   -2.3980 C   0  0
    0.2210   -1.9300   -1.3030 C   0  0
    1.7660    2.4650    0.2230 C   0  0  1  0  0  0
    1.1070    4.1410    1.7830 C   0  0
   -1.2320   -0.8850   -3.4710 C   0  0
   -0.1370   -2.7660   -2.3750 C   0  0
    2.9300    2.5210    1.2540 C   0  0  2  0  0  0
    1.9650    3.5960   -0.8160 C   0  0
    2.5860    3.8050    2.0660 C   0  0
   -0.8630   -2.2440   -3.4630 C   0  0
    4.2010    2.6540    0.6370 O   0  0
    2.9450    1.3220    2.1130 C   0  0
   -1.2110   -3.0570   -4.5080 N   0  0
    2.9220    0.3460    2.7990 C   0  0
   -1.8610   -2.5740   -5.7130 C   0  0
   -0.9690   -4.4880   -4.5230 C   0  0
    2.8590   -0.8650    3.6390 C   0  0
   -1.7890   -3.7640   -6.6740 C   0  0
   -1.7600   -4.9840   -5.7360 C   0  0
    3.0200   -2.0840    2.7400 C   0  0
    1.4960   -0.9140    4.3240 C   0  0
    3.9750   -0.8240    4.6780 C   0  0
   -4.8580    1.5530    2.6310 H   0  0
   -2.5980   -2.0470    2.6390 H   0  0
   -3.8850   -2.2340    1.4820 H   0  0
   -1.3500   -1.4490    0.8950 H   0  0
   -2.7250   -1.1950   -0.1560 H   0  0
   -3.9430    3.4240    1.5550 H   0  0
   -3.4900    2.9510   -0.0800 H   0  0
   -1.6060    3.4530    2.2750 H   0  0
   -1.7810    4.5020    0.8770 H   0  0
    0.5490   -0.3590    0.6310 H   0  0
   -0.6580    3.0510   -0.5720 H   0  0
    2.3770    0.4980   -0.4920 H   0  0
    1.4180    1.3870   -1.6070 H   0  0
    0.5660    2.1350    2.0040 H   0  0
   -1.1580    0.9900   -2.4100 H   0  0
    0.7790   -2.3340   -0.4710 H   0  0
    0.5620    4.4080    2.6820 H   0  0
    1.0160    4.9790    1.0940 H   0  0
   -1.7910   -0.4670   -4.2970 H   0  0
    0.1560   -3.8050   -2.3500 H   0  0
    2.3610    4.5020   -0.3590 H   0  0
    1.0180    3.8520   -1.2930 H   0  0
    2.6580    3.2850   -1.5980 H   0  0
    3.1970    4.6470    1.7850 H   0  0
    2.7400    3.6760    3.1270 H   0  0
    4.8320    2.8950    1.3340 H   0  0
   -1.3630   -1.7030   -6.1130 H   0  0
   -2.8870   -2.3160   -5.4900 H   0  0
    0.0900   -4.6720   -4.6470 H   0  0
   -1.2990   -4.9570   -3.6070 H   0  0
   -0.8750   -3.7230   -7.2500 H   0  0
   -2.6170   -3.7890   -7.3670 H   0  0
   -2.7680   -5.2440   -5.4390 H   0  0
   -1.3140   -5.8540   -6.1970 H   0  0
    3.9810   -2.0880    2.2290 H   0  0
    2.2380   -2.1090    1.9830 H   0  0
    2.9470   -3.0040    3.3220 H   0  0
    1.3400   -0.0550    4.9770 H   0  0
    1.4020   -1.8150    4.9320 H   0  0
    0.6930   -0.9240    3.5880 H   0  0
    3.8690    0.0490    5.3220 H   0  0
    3.9610   -1.7250    5.2930 H   0  0
    4.9490   -0.7660    4.1930 H   0  0
  1  2  2  0
  2  3  1  0
  2  4  1  0
  3  5  2  0
  4  6  1  0
  5  7  1  0
  5  8  1  0
  7  9  2  0
  8 10  1  0
  9 11  1  0
  9 12  1  0
 11 13  1  0
 11 14  1  0
 12 15  1  0
 13 16  2  0
 13 17  1  0
 14 18  1  0
 15 19  1  0
 16 20  1  0
 17 21  2  0
 18 22  1  0
 18 23  1  0
 19 24  1  0
 20 25  2  0
 22 26  1  0
 22 27  1  0
 25 28  1  0
 27 29  3  0
 28 30  1  0
 28 31  1  0
 29 32  1  0
 30 33  1  0
 31 34  1  0
 32 35  1  0
 32 36  1  0
 32 37  1  0
  6  7  1  0
 12 10  1  0
 15 18  1  0
 21 25  1  0
 22 24  1  0
 33 34  1  0
  3 38  1  0
  4 39  1  0
  4 40  1  0
  6 41  1  0
  6 42  1  0
  8 43  1  0
  8 44  1  0
 10 45  1  0
 10 46  1  0
 11 47  1  0
 12 48  1  0
 14 49  1  0
 14 50  1  0
 15 51  1  0
 16 52  1  0
 17 53  1  0
 19 54  1  0
 19 55  1  0
 20 56  1  0
 21 57  1  0
 23 58  1  0
 23 59  1  0
 23 60  1  0
 24 61  1  0
 24 62  1  0
 26 63  1  0
 30 64  1  0
 30 65  1  0
 31 66  1  0
 31 67  1  0
 33 68  1  0
 33 69  1  0
 34 70  1  0
 34 71  1  0
 35 72  1  0
 35 73  1  0
 35 74  1  0
 36 75  1  0
 36 76  1  0
 36 77  1  0
 37 78  1  0
 37 79  1  0
 37 80  1  0
M  END
> <Name>
CHEMBL4162539

> <IC50 nM>
19.5

> <Molecule_ChEMBL_ID>
CHEMBL4162539

> <Smiles>
CC(C)(C)C#C[C@]1(O)CC[C@H]2[C@@H]3CCC4=CC(=O)CCC4=C3[C@@H](c3ccc(N4CCCC4)cc3)C[C@@]21C

$$$$
CHEMBL4169685
  SciTegic08162514323D

 79 83  0  0  1  0            999 V2000
   -6.5650   -0.9470   -2.3110 O   0  0
   -5.5570   -0.6990   -1.6930 C   0  0
   -4.9080   -1.7330   -0.8670 C   0  0
   -4.9220    0.6660   -1.7460 C   0  0
   -3.7110   -1.5450   -0.2660 C   0  0
   -3.3970    0.5570   -1.6760 C   0  0
   -2.9080   -0.2620   -0.4550 C   0  0  2  0  0  0
   -3.1450   -2.6230    0.6370 C   0  0
   -1.3710   -0.5100   -0.5390 C   0  0  1  0  0  0
   -1.6390   -2.8260    0.4570 C   0  0
   -0.5200    0.7930   -0.6000 C   0  0  1  0  0  0
   -0.8790   -1.4940    0.5550 C   0  0  1  0  0  0
   -0.8590    1.7660    0.4860 C   0  0
    1.0000    0.4920   -0.6500 C   0  0
    0.6270   -1.7460    0.3550 C   0  0  1  0  0  0
   -1.6060    1.3440    1.6000 C   0  0
   -0.4320    3.1020    0.3910 C   0  0
    1.4550   -0.4550    0.4800 C   0  0  1  0  0  0
    1.3160   -2.6740    1.3590 C   0  0
   -1.9240    2.2560    2.6210 C   0  0
   -0.7500    4.0160    1.4100 C   0  0
    2.8980   -1.0290    0.4220 C   0  0  2  0  0  0
    1.2250    0.1780    1.8710 C   0  0
    2.7950   -2.2580    1.3520 C   0  0
   -1.4980    3.5960    2.5270 C   0  0
    3.8420   -0.1040    0.9280 O   0  0
    3.3260   -1.4140   -0.9340 C   0  0
   -1.8070    4.4860    3.5210 N   0  0
    3.6800   -1.7290   -2.0250 C   0  0
   -1.3730    5.8870    3.4450 C   0  0
   -2.5880    4.0450    4.6870 C   0  0
    4.1170   -2.1090   -3.3610 C   0  0
    5.4080   -2.6640   -3.2830 O   0  0
    3.1880   -3.1780   -3.9300 C   0  0
    4.1950   -0.8750   -4.2600 C   0  0
    6.3870   -1.7360   -2.8710 C   0  0
   -5.4240   -2.6720   -0.7360 H   0  0
   -5.2190    1.1820   -2.6600 H   0  0
   -5.2910    1.2620   -0.9120 H   0  0
   -2.9730    1.5600   -1.6520 H   0  0
   -3.0310    0.0940   -2.5940 H   0  0
   -3.1070    0.3360    0.4350 H   0  0
   -3.3480   -2.3400    1.6700 H   0  0
   -3.6580   -3.5700    0.4750 H   0  0
   -1.2010   -1.0200   -1.4900 H   0  0
   -1.2810   -3.5260    1.2130 H   0  0
   -1.4490   -3.2930   -0.5100 H   0  0
   -0.7620    1.3050   -1.5310 H   0  0
   -1.0590   -1.0630    1.5410 H   0  0
    1.5800    1.4180   -0.6250 H   0  0
    1.2090    0.0410   -1.6230 H   0  0
    0.7600   -2.1720   -0.6330 H   0  0
   -1.9360    0.3180    1.6780 H   0  0
    0.1410    3.4300   -0.4630 H   0  0
    0.8980   -2.5410    2.3480 H   0  0
    1.1860   -3.7150    1.0920 H   0  0
   -2.4980    1.9140    3.4710 H   0  0
   -0.4140    5.0390    1.3200 H   0  0
    1.8280   -0.3030    2.6410 H   0  0
    0.1780    0.0900    2.1660 H   0  0
    1.4800    1.2360    1.8590 H   0  0
    3.0900   -2.0220    2.3650 H   0  0
    3.4320   -3.0760    1.0410 H   0  0
    4.6680   -0.5880    1.0740 H   0  0
   -0.7990    6.1410    2.5530 H   0  0
   -0.7560    6.1190    4.3140 H   0  0
   -2.2480    6.5370    3.4750 H   0  0
   -2.8750    2.9920    4.6740 H   0  0
   -3.5000    4.6370    4.7540 H   0  0
   -2.0080    4.2210    5.5940 H   0  0
    3.1620   -4.0680   -3.3050 H   0  0
    3.5120   -3.4790   -4.9260 H   0  0
    2.1680   -2.7990   -4.0120 H   0  0
    4.6680   -0.0330   -3.7520 H   0  0
    3.2010   -0.5610   -4.5720 H   0  0
    4.7750   -1.0900   -5.1580 H   0  0
    7.2700   -2.2950   -2.5570 H   0  0
    6.5270   -1.0120   -3.6720 H   0  0
    6.0020   -1.2030   -2.0020 H   0  0
  1  2  2  0
  2  3  1  0
  2  4  1  0
  3  5  2  0
  4  6  1  0
  5  7  1  0
  5  8  1  0
  9  7  1  0
  8 10  1  0
  9 11  1  0
  9 12  1  0
 11 13  1  0
 11 14  1  0
 12 15  1  0
 13 16  2  0
 13 17  1  0
 14 18  1  0
 15 19  1  0
 16 20  1  0
 17 21  2  0
 18 22  1  0
 18 23  1  0
 19 24  1  0
 20 25  2  0
 22 26  1  0
 22 27  1  0
 25 28  1  0
 27 29  3  0
 28 30  1  0
 28 31  1  0
 29 32  1  0
 32 33  1  0
 32 34  1  0
 32 35  1  0
 33 36  1  0
  7  6  1  0
 12 10  1  0
 15 18  1  0
 21 25  1  0
 22 24  1  0
  3 37  1  0
  4 38  1  0
  4 39  1  0
  6 40  1  0
  6 41  1  0
  7 42  1  0
  8 43  1  0
  8 44  1  0
  9 45  1  0
 10 46  1  0
 10 47  1  0
 11 48  1  0
 12 49  1  0
 14 50  1  0
 14 51  1  0
 15 52  1  0
 16 53  1  0
 17 54  1  0
 19 55  1  0
 19 56  1  0
 20 57  1  0
 21 58  1  0
 23 59  1  0
 23 60  1  0
 23 61  1  0
 24 62  1  0
 24 63  1  0
 26 64  1  0
 30 65  1  0
 30 66  1  0
 30 67  1  0
 31 68  1  0
 31 69  1  0
 31 70  1  0
 34 71  1  0
 34 72  1  0
 34 73  1  0
 35 74  1  0
 35 75  1  0
 35 76  1  0
 36 77  1  0
 36 78  1  0
 36 79  1  0
M  END
> <Name>
CHEMBL4169685

> <IC50 nM>
14.6

> <Molecule_ChEMBL_ID>
CHEMBL4169685

> <Smiles>
COC(C)(C)C#C[C@]1(O)CC[C@H]2[C@@H]3CCC4=CC(=O)CC[C@@H]4[C@H]3[C@@H](c3ccc(N(C)C)cc3)C[C@@]21C

$$$$
CHEMBL4172624
  SciTegic08162514323D

 68 72  0  0  1  0            999 V2000
   -4.0860   -1.1370    4.0160 O   0  0
   -3.6680   -0.8220    2.9260 C   0  0
   -3.7750    0.5700    2.4650 C   0  0
   -3.0180   -1.8420    2.0210 C   0  0
   -2.9340    1.0660    1.5370 C   0  0
   -2.1050   -1.2700    0.9160 C   0  0
   -1.8710    0.2320    0.9490 C   0  0
   -3.0160    2.5060    1.0920 C   0  0
   -0.7250    0.8030    0.4880 C   0  0
   -1.6270    3.1190    1.2830 C   0  0
    0.4550   -0.0250   -0.0350 C   0  0  1  0  0  0
   -0.5190    2.3200    0.5470 C   0  0  1  0  0  0
    0.1000   -0.9470   -1.1600 C   0  0
    1.7090    0.8110   -0.4120 C   0  0
    0.8150    2.5180    1.2790 C   0  0  1  0  0  0
    0.5140   -2.2910   -1.1290 C   0  0
   -0.6480   -0.4710   -2.2520 C   0  0
    1.9920    2.1210    0.3630 C   0  0  1  0  0  0
    1.3150    3.8280    1.8890 C   0  0
    0.1820   -3.1560   -2.1840 C   0  0
   -0.9800   -1.3360   -3.3090 C   0  0
    3.1090    2.1480    1.4430 C   0  0  2  0  0  0
    2.2420    3.2480   -0.6700 C   0  0
    2.7600    3.4340    2.2520 C   0  0
   -0.5660   -2.6800   -3.2750 C   0  0
    4.3990    2.2580    0.8670 O   0  0
    3.1000    0.9390    2.2930 C   0  0
   -0.9200   -3.5960   -4.3930 C   0  0
    3.0700   -0.0370    2.9750 C   0  0
    0.3260   -4.0980   -5.1230 C   0  0
   -1.8280   -4.7320   -3.9240 C   0  0
    3.0120   -1.2440    3.8030 C   0  0
   -4.5390    1.1990    2.8950 H   0  0
   -2.4410   -2.5430    2.6270 H   0  0
   -3.8050   -2.4360    1.5570 H   0  0
   -1.1620   -1.8110    0.9840 H   0  0
   -2.5350   -1.5180   -0.0570 H   0  0
   -3.7620    3.0590    1.6640 H   0  0
   -3.3140    2.5530    0.0430 H   0  0
   -1.4260    3.1600    2.3570 H   0  0
   -1.6210    4.1560    0.9450 H   0  0
    0.7560   -0.6760    0.7870 H   0  0
   -0.4530    2.7030   -0.4710 H   0  0
    2.5920    0.1740   -0.3810 H   0  0
    1.6060    1.0740   -1.4670 H   0  0
    0.7420    1.8550    2.1330 H   0  0
    1.0900   -2.6640   -0.2930 H   0  0
   -0.9690    0.5610   -2.2830 H   0  0
    0.7440    4.1430    2.7480 H   0  0
    1.2890    4.6370    1.1720 H   0  0
    0.5020   -4.1880   -2.1520 H   0  0
   -1.5550   -0.9630   -4.1450 H   0  0
    2.6970    4.1270   -0.2110 H   0  0
    1.3050    3.5630   -1.1330 H   0  0
    2.9060    2.9040   -1.4630 H   0  0
    3.4140    4.2620    2.0180 H   0  0
    2.8460    3.2790    3.3200 H   0  0
    5.0120    2.5020    1.5780 H   0  0
   -1.4730   -2.8910   -5.0160 H   0  0
    0.9650   -3.2770   -5.4490 H   0  0
    0.0490   -4.6760   -6.0060 H   0  0
    0.9180   -4.7440   -4.4750 H   0  0
   -2.7090   -4.3590   -3.4020 H   0  0
   -1.2950   -5.3950   -3.2420 H   0  0
   -2.1680   -5.3280   -4.7720 H   0  0
    3.8030   -1.2420    4.5550 H   0  0
    2.0510   -1.3070    4.3140 H   0  0
    3.1270   -2.1330    3.1840 H   0  0
  1  2  2  0
  2  3  1  0
  2  4  1  0
  3  5  2  0
  4  6  1  0
  5  7  1  0
  5  8  1  0
  7  9  2  0
  8 10  1  0
  9 11  1  0
  9 12  1  0
 11 13  1  0
 11 14  1  0
 12 15  1  0
 13 16  2  0
 13 17  1  0
 14 18  1  0
 15 19  1  0
 16 20  1  0
 17 21  2  0
 18 22  1  0
 18 23  1  0
 19 24  1  0
 20 25  2  0
 22 26  1  0
 22 27  1  0
 25 28  1  0
 27 29  3  0
 28 30  1  0
 28 31  1  0
 29 32  1  0
  6  7  1  0
 12 10  1  0
 15 18  1  0
 21 25  1  0
 22 24  1  0
  3 33  1  0
  4 34  1  0
  4 35  1  0
  6 36  1  0
  6 37  1  0
  8 38  1  0
  8 39  1  0
 10 40  1  0
 10 41  1  0
 11 42  1  0
 12 43  1  0
 14 44  1  0
 14 45  1  0
 15 46  1  0
 16 47  1  0
 17 48  1  0
 19 49  1  0
 19 50  1  0
 20 51  1  0
 21 52  1  0
 23 53  1  0
 23 54  1  0
 23 55  1  0
 24 56  1  0
 24 57  1  0
 26 58  1  0
 28 59  1  0
 30 60  1  0
 30 61  1  0
 30 62  1  0
 31 63  1  0
 31 64  1  0
 31 65  1  0
 32 66  1  0
 32 67  1  0
 32 68  1  0
M  END
> <Name>
CHEMBL4172624

> <IC50 nM>
1.93

> <Molecule_ChEMBL_ID>
CHEMBL4172624

> <Smiles>
CC#C[C@]1(O)CC[C@H]2[C@@H]3CCC4=CC(=O)CCC4=C3[C@@H](c3ccc(C(C)C)cc3)C[C@@]21C

$$$$
CHEMBL395536
  SciTegic08162514323D

 60 63  0  0  1  0            999 V2000
   -2.4180   -2.1580    0.6170 O   0  0
   -1.3520   -1.4860   -0.0180 C   0  0  2  0  0  0
   -2.0740   -3.4510    1.0610 C   0  0
   -1.6600   -0.0100   -0.0880 C   0  0
   -1.1270   -2.0760   -1.3630 C   0  0
   -1.3110   -3.3520    2.3540 C   0  0
   -0.5740    1.0140   -0.0370 C   0  0
   -2.9430    0.3830   -0.1990 C   0  0
    0.1410   -2.5800   -1.7070 C   0  0
   -2.1800   -2.1310   -2.2950 C   0  0
   -1.1390   -4.4670    3.0840 C   0  0
   -0.9060    2.3960   -0.1070 C   0  0
    0.7830    0.6130    0.0820 C   0  0
   -3.3460    1.8460   -0.2750 C   0  0
    0.3550   -3.1370   -2.9810 C   0  0
   -1.9650   -2.6880   -3.5660 C   0  0
   -2.1970    2.7990   -0.2230 N   0  0
    0.1350    3.3610   -0.0590 C   0  0
    1.8140    1.5800    0.1310 C   0  0
   -4.0980    2.0640   -1.5900 C   0  0
   -4.2790    2.1440    0.9000 C   0  0
   -0.6970   -3.1920   -3.9100 C   0  0
    1.4820    2.9550    0.0610 C   0  0
    3.2050    1.1660    0.2520 C   0  0
    4.0610    1.7890    1.1880 C   0  0
    3.6950    0.1370   -0.5720 C   0  0
    3.6250    2.7560    1.9730 O   0  0
    5.4000    1.3710    1.2870 C   0  0
    5.0350   -0.2740   -0.4650 C   0  0
    4.5390    3.3280    2.8970 C   0  0
    5.8890    0.3440    0.4650 C   0  0
   -0.4590   -1.6170    0.5920 H   0  0
   -1.4490   -3.9180    0.2970 H   0  0
   -2.9940   -4.0140    1.2150 H   0  0
   -0.8730   -2.4550    2.7680 H   0  0
   -3.7210   -0.3670   -0.2340 H   0  0
    0.9550   -2.5430   -0.9960 H   0  0
   -3.1540   -1.7440   -2.0370 H   0  0
   -0.6250   -4.5510    4.0290 H   0  0
   -1.5680   -5.3650    2.6640 H   0  0
    1.0330   -0.4380    0.1350 H   0  0
    1.3280   -3.5260   -3.2420 H   0  0
   -2.7730   -2.7290   -4.2810 H   0  0
   -2.4140    3.7750   -0.2730 H   0  0
   -0.0880    4.4180   -0.1090 H   0  0
   -3.4690    1.8610   -2.4570 H   0  0
   -4.4510    3.0920   -1.6660 H   0  0
   -4.9690    1.4080   -1.6500 H   0  0
   -3.7830    2.0000    1.8610 H   0  0
   -5.1520    1.4900    0.8770 H   0  0
   -4.6330    3.1740    0.8590 H   0  0
   -0.5330   -3.6190   -4.8870 H   0  0
    2.2560    3.7110    0.0980 H   0  0
    3.0550   -0.3500   -1.2930 H   0  0
    6.0610    1.8440    2.0020 H   0  0
    5.4100   -1.0650   -1.1000 H   0  0
    4.8480    2.5510    3.5960 H   0  0
    5.3360    3.8120    2.3320 H   0  0
    4.0160    4.0960    3.4630 H   0  0
    6.9180    0.0270    0.5450 H   0  0
  2  1  1  0
  1  3  1  0
  2  4  1  0
  2  5  1  0
  3  6  1  0
  4  7  1  0
  4  8  2  0
  5  9  2  0
  5 10  1  0
  6 11  2  0
  7 12  2  0
  7 13  1  0
  8 14  1  0
  9 15  1  0
 10 16  2  0
 12 17  1  0
 12 18  1  0
 13 19  2  0
 14 20  1  0
 14 21  1  0
 15 22  2  0
 18 23  2  0
 19 24  1  0
 24 25  2  0
 24 26  1  0
 25 27  1  0
 25 28  1  0
 26 29  2  0
 27 30  1  0
 28 31  2  0
 14 17  1  0
 16 22  1  0
 19 23  1  0
 29 31  1  0
  2 32  1  0
  3 33  1  0
  3 34  1  0
  6 35  1  0
  8 36  1  0
  9 37  1  0
 10 38  1  0
 11 39  1  0
 11 40  1  0
 13 41  1  0
 15 42  1  0
 16 43  1  0
 17 44  1  0
 18 45  1  0
 20 46  1  0
 20 47  1  0
 20 48  1  0
 21 49  1  0
 21 50  1  0
 21 51  1  0
 22 52  1  0
 23 53  1  0
 26 54  1  0
 28 55  1  0
 29 56  1  0
 30 57  1  0
 30 58  1  0
 30 59  1  0
 31 60  1  0
M  END
> <Name>
CHEMBL395536

> <IC50 nM>
2000

> <Molecule_ChEMBL_ID>
CHEMBL395536

> <Smiles>
C=CCOC(C1=CC(C)(C)Nc2ccc(-c3ccccc3OC)cc21)c1ccccc1

$$$$
CHEMBL228663
  SciTegic08162514323D

 57 59  0  0  1  0            999 V2000
   -0.2520   -1.8650   -0.7090 O   0  0
   -1.2110   -1.5370    0.2710 C   0  0  2  0  0  0
   -0.7580   -1.8080   -2.0220 C   0  0
   -1.5180   -0.0600    0.2010 C   0  0
   -0.6640   -1.9550    1.6370 C   0  0
   -1.6130   -3.0210   -2.2830 C   0  0
   -0.4340    0.9630    0.2520 C   0  0
   -2.8030    0.3340    0.0900 C   0  0
   -1.7420   -2.0580    2.6820 C   0  0
   -2.4710   -2.9900   -3.3160 C   0  0
   -0.7660    2.3460    0.1800 C   0  0
    0.9240    0.5630    0.3690 C   0  0
   -3.2050    1.7950    0.0140 C   0  0
   -1.8650   -3.2070    3.3630 C   0  0
   -2.0570    2.7480    0.0660 N   0  0
    0.2750    3.3110    0.2300 C   0  0
    1.9570    1.5310    0.4200 C   0  0
   -3.9570    2.0140   -1.3010 C   0  0
   -4.1390    2.0940    1.1890 C   0  0
    1.6250    2.9050    0.3500 C   0  0
    3.3480    1.1170    0.5410 C   0  0
    3.8830    0.1370   -0.3220 C   0  0
    4.1600    1.7010    1.5310 C   0  0
    3.1430   -0.4260   -1.2580 O   0  0
    5.2290   -0.2460   -0.1860 C   0  0
    5.5040    1.3110    1.6600 C   0  0
    3.7930   -1.2380   -2.2250 C   0  0
    6.0370    0.3380    0.8030 C   0  0
   -2.1290   -2.0780    0.0430 H   0  0
    0.0860   -1.7950   -2.7110 H   0  0
   -1.3590   -0.9040   -2.1150 H   0  0
    0.0550   -1.1850    1.9200 H   0  0
   -0.1270   -2.9000    1.5620 H   0  0
   -1.6090   -3.9370   -1.7110 H   0  0
   -3.5800   -0.4180    0.0550 H   0  0
   -2.4470   -1.2830    2.9470 H   0  0
   -3.1450   -3.7750   -3.6250 H   0  0
   -2.4730   -2.0740   -3.8890 H   0  0
    1.1760   -0.4880    0.4220 H   0  0
   -1.2640   -4.0980    3.2500 H   0  0
   -2.6540   -3.2260    4.1000 H   0  0
   -2.2730    3.7270    0.0140 H   0  0
    0.0530    4.3670    0.1800 H   0  0
   -3.3280    1.8110   -2.1680 H   0  0
   -4.3090    3.0430   -1.3790 H   0  0
   -4.8260    1.3600   -1.3610 H   0  0
   -3.6410    1.9510    2.1480 H   0  0
   -5.0100    1.4420    1.1640 H   0  0
   -4.4920    3.1250    1.1480 H   0  0
    2.3970    3.6600    0.3870 H   0  0
    3.7640    2.4530    2.2010 H   0  0
    5.6450   -0.9960   -0.8440 H   0  0
    6.1250    1.7620    2.4220 H   0  0
    3.0450   -1.5880   -2.9360 H   0  0
    4.6270   -0.6760   -2.6390 H   0  0
    4.1990   -2.1130   -1.7150 H   0  0
    7.0700    0.0370    0.9020 H   0  0
  2  1  1  0
  1  3  1  0
  2  4  1  0
  2  5  1  0
  3  6  1  0
  4  7  1  0
  4  8  2  0
  5  9  1  0
  6 10  2  0
  7 11  2  0
  7 12  1  0
  8 13  1  0
  9 14  2  0
 11 15  1  0
 11 16  1  0
 12 17  2  0
 13 18  1  0
 13 19  1  0
 16 20  2  0
 17 21  1  0
 21 22  2  0
 21 23  1  0
 22 24  1  0
 22 25  1  0
 23 26  2  0
 24 27  1  0
 25 28  2  0
 13 15  1  0
 17 20  1  0
 26 28  1  0
  2 29  1  0
  3 30  1  0
  3 31  1  0
  5 32  1  0
  5 33  1  0
  6 34  1  0
  8 35  1  0
  9 36  1  0
 10 37  1  0
 10 38  1  0
 12 39  1  0
 14 40  1  0
 14 41  1  0
 15 42  1  0
 16 43  1  0
 18 44  1  0
 18 45  1  0
 18 46  1  0
 19 47  1  0
 19 48  1  0
 19 49  1  0
 20 50  1  0
 23 51  1  0
 25 52  1  0
 26 53  1  0
 27 54  1  0
 27 55  1  0
 27 56  1  0
 28 57  1  0
M  END
> <Name>
CHEMBL228663

> <IC50 nM>
2000

> <Molecule_ChEMBL_ID>
CHEMBL228663

> <Smiles>
C=CCOC(CC=C)C1=CC(C)(C)Nc2ccc(-c3ccccc3OC)cc21

$$$$
CHEMBL430004
  SciTegic08162514323D

 62 65  0  0  1  0            999 V2000
   -2.6230   -2.0160   -7.4030 Cl  0  0
   -1.9160   -2.0860   -5.8420 C   0  0
   -0.6000   -2.5550   -5.6840 C   0  0
   -2.6520   -1.6740   -4.7150 C   0  0
   -0.0200   -2.6090   -4.4040 C   0  0
   -2.0720   -1.7300   -3.4360 C   0  0
   -0.7560   -2.1970   -3.2790 C   0  0
   -0.1410   -2.2540   -1.9280 C   0  0
   -1.1080   -1.7620   -0.8500 C   0  0
   -0.4570   -1.8460    0.3980 O   0  0
   -1.2830   -1.4860    1.4820 C   0  0  2  0  0  0
   -1.5900   -0.0100    1.4120 C   0  0
   -0.5700   -1.8730    2.7770 C   0  0
   -0.5060    1.0140    1.4610 C   0  0
   -2.8750    0.3850    1.3010 C   0  0
   -0.8380    2.3970    1.3910 C   0  0
    0.8520    0.6130    1.5800 C   0  0
   -3.2770    1.8480    1.2250 C   0  0
   -2.1290    2.7990    1.2770 N   0  0
    0.2030    3.3610    1.4410 C   0  0
    1.8850    1.5820    1.6290 C   0  0
   -4.0290    2.0640   -0.0920 C   0  0
   -4.2110    2.1470    2.4000 C   0  0
    1.5530    2.9570    1.5600 C   0  0
    3.2750    1.1680    1.7520 C   0  0
    3.8500    0.2890    0.8070 C   0  0
    4.0510    1.6500    2.8240 C   0  0
    3.1450   -0.1760   -0.2070 O   0  0
    5.1950   -0.0980    0.9450 C   0  0
    5.3950    1.2580    2.9550 C   0  0
    3.8200   -0.9430   -1.1940 C   0  0
    5.9670    0.3850    2.0160 C   0  0
   -0.0220   -2.8770   -6.5390 H   0  0
   -3.6660   -1.3130   -4.8210 H   0  0
    0.9940   -2.9690   -4.2910 H   0  0
   -2.6430   -1.4140   -2.5740 H   0  0
    0.1820   -3.2730   -1.7170 H   0  0
    0.7770   -1.6660   -1.9200 H   0  0
   -1.3770   -0.7210   -1.0220 H   0  0
   -1.9960   -2.3910   -0.8110 H   0  0
   -2.2250   -2.0270    1.3850 H   0  0
   -1.1350   -2.6090    3.3480 H   0  0
   -0.4260   -0.9980    3.4140 H   0  0
    0.4120   -2.2950    2.5640 H   0  0
   -3.6520   -0.3670    1.2660 H   0  0
    1.1030   -0.4360    1.6330 H   0  0
   -2.3460    3.7770    1.2250 H   0  0
   -0.0200    4.4180    1.3890 H   0  0
   -3.4010    1.8630   -0.9570 H   0  0
   -4.3810    3.0940   -0.1680 H   0  0
   -4.8990    1.4100   -0.1510 H   0  0
   -3.7150    2.0020    3.3590 H   0  0
   -5.0820    1.4920    2.3750 H   0  0
   -4.5650    3.1760    2.3590 H   0  0
    2.3240    3.7110    1.5960 H   0  0
    3.6270    2.3220    3.5570 H   0  0
    5.6390   -0.7680    0.2240 H   0  0
    5.9860    1.6310    3.7770 H   0  0
    3.0920   -1.2520   -1.9440 H   0  0
    4.6700   -0.3630   -1.5530 H   0  0
    4.2090   -1.8440   -0.7170 H   0  0
    6.9980    0.0840    2.1150 H   0  0
  1  2  1  0
  2  3  2  0
  2  4  1  0
  3  5  1  0
  4  6  2  0
  5  7  2  0
  7  8  1  0
  8  9  1  0
  9 10  1  0
 10 11  1  0
 11 12  1  0
 11 13  1  0
 12 14  1  0
 12 15  2  0
 14 16  2  0
 14 17  1  0
 15 18  1  0
 16 19  1  0
 16 20  1  0
 17 21  2  0
 18 22  1  0
 18 23  1  0
 20 24  2  0
 21 25  1  0
 25 26  2  0
 25 27  1  0
 26 28  1  0
 26 29  1  0
 27 30  2  0
 28 31  1  0
 29 32  2  0
  6  7  1  0
 18 19  1  0
 21 24  1  0
 30 32  1  0
  3 33  1  0
  4 34  1  0
  5 35  1  0
  6 36  1  0
  8 37  1  0
  8 38  1  0
  9 39  1  0
  9 40  1  0
 11 41  1  0
 13 42  1  0
 13 43  1  0
 13 44  1  0
 15 45  1  0
 17 46  1  0
 19 47  1  0
 20 48  1  0
 22 49  1  0
 22 50  1  0
 22 51  1  0
 23 52  1  0
 23 53  1  0
 23 54  1  0
 24 55  1  0
 27 56  1  0
 29 57  1  0
 30 58  1  0
 31 59  1  0
 31 60  1  0
 31 61  1  0
 32 62  1  0
M  END
> <Name>
CHEMBL430004

> <IC50 nM>
185

> <Molecule_ChEMBL_ID>
CHEMBL430004

> <Smiles>
COc1ccccc1-c1ccc2c(c1)C(C(C)OCCc1ccc(Cl)cc1)=CC(C)(C)N2

$$$$
CHEMBL242872
  SciTegic08162514323D

 62 65  0  0  1  0            999 V2000
    0.2910   -3.0550   -7.0590 Cl  0  0
   -0.6070   -2.5510   -5.6870 C   0  0
   -0.0270   -2.6050   -4.4060 C   0  0
   -1.9260   -2.0820   -5.8400 C   0  0
   -0.7640   -2.1930   -3.2810 C   0  0
   -2.6600   -1.6720   -4.7150 C   0  0
   -2.0820   -1.7260   -3.4350 C   0  0
   -0.1500   -2.2520   -1.9280 C   0  0
   -1.1170   -1.7580   -0.8490 C   0  0
   -0.4670   -1.8420    0.3970 O   0  0
   -1.2930   -1.4820    1.4810 C   0  0  2  0  0  0
   -1.6000   -0.0060    1.4100 C   0  0
   -0.5800   -1.8690    2.7760 C   0  0
   -0.5140    1.0180    1.4610 C   0  0
   -2.8850    0.3870    1.2990 C   0  0
   -0.8480    2.4010    1.3910 C   0  0
    0.8420    0.6170    1.5780 C   0  0
   -3.2870    1.8500    1.2230 C   0  0
   -2.1390    2.8030    1.2760 N   0  0
    0.1930    3.3650    1.4400 C   0  0
    1.8750    1.5840    1.6290 C   0  0
   -4.0390    2.0680   -0.0920 C   0  0
   -4.2210    2.1490    2.3990 C   0  0
    1.5430    2.9590    1.5590 C   0  0
    3.2680    1.1700    1.7500 C   0  0
    3.8400    0.2930    0.8050 C   0  0
    4.0410    1.6520    2.8220 C   0  0
    3.1350   -0.1740   -0.2090 O   0  0
    5.1860   -0.0940    0.9440 C   0  0
    5.3850    1.2620    2.9530 C   0  0
    3.8110   -0.9390   -1.1930 C   0  0
    5.9570    0.3890    2.0140 C   0  0
    0.9840   -2.9650   -4.2790 H   0  0
   -2.3830   -2.0310   -6.8180 H   0  0
   -3.6720   -1.3120   -4.8340 H   0  0
   -2.6520   -1.4100   -2.5760 H   0  0
    0.1720   -3.2710   -1.7190 H   0  0
    0.7680   -1.6640   -1.9200 H   0  0
   -1.3870   -0.7170   -1.0210 H   0  0
   -2.0060   -2.3890   -0.8120 H   0  0
   -2.2340   -2.0230    1.3830 H   0  0
   -1.1440   -2.6070    3.3460 H   0  0
   -0.4350   -0.9960    3.4120 H   0  0
    0.4020   -2.2930    2.5650 H   0  0
   -3.6620   -0.3630    1.2640 H   0  0
    1.0940   -0.4340    1.6310 H   0  0
   -2.3530    3.7790    1.2230 H   0  0
   -0.0290    4.4220    1.3890 H   0  0
   -3.4100    1.8650   -0.9590 H   0  0
   -4.3910    3.0980   -0.1680 H   0  0
   -4.9080    1.4140   -0.1520 H   0  0
   -3.7230    2.0060    3.3580 H   0  0
   -5.0920    1.4960    2.3730 H   0  0
   -4.5740    3.1800    2.3580 H   0  0
    2.3150    3.7150    1.5960 H   0  0
    3.6170    2.3260    3.5550 H   0  0
    5.6310   -0.7660    0.2230 H   0  0
    5.9770    1.6330    3.7780 H   0  0
    3.0840   -1.2480   -1.9450 H   0  0
    4.6600   -0.3610   -1.5550 H   0  0
    4.1990   -1.8400   -0.7190 H   0  0
    6.9880    0.0880    2.1130 H   0  0
  1  2  1  0
  2  3  2  0
  2  4  1  0
  3  5  1  0
  4  6  2  0
  5  7  2  0
  5  8  1  0
  8  9  1  0
  9 10  1  0
 10 11  1  0
 11 12  1  0
 11 13  1  0
 12 14  1  0
 12 15  2  0
 14 16  2  0
 14 17  1  0
 15 18  1  0
 16 19  1  0
 16 20  1  0
 17 21  2  0
 18 22  1  0
 18 23  1  0
 20 24  2  0
 21 25  1  0
 25 26  2  0
 25 27  1  0
 26 28  1  0
 26 29  1  0
 27 30  2  0
 28 31  1  0
 29 32  2  0
  6  7  1  0
 18 19  1  0
 21 24  1  0
 30 32  1  0
  3 33  1  0
  4 34  1  0
  6 35  1  0
  7 36  1  0
  8 37  1  0
  8 38  1  0
  9 39  1  0
  9 40  1  0
 11 41  1  0
 13 42  1  0
 13 43  1  0
 13 44  1  0
 15 45  1  0
 17 46  1  0
 19 47  1  0
 20 48  1  0
 22 49  1  0
 22 50  1  0
 22 51  1  0
 23 52  1  0
 23 53  1  0
 23 54  1  0
 24 55  1  0
 27 56  1  0
 29 57  1  0
 30 58  1  0
 31 59  1  0
 31 60  1  0
 31 61  1  0
 32 62  1  0
M  END
> <Name>
CHEMBL242872

> <IC50 nM>
275

> <Molecule_ChEMBL_ID>
CHEMBL242872

> <Smiles>
COc1ccccc1-c1ccc2c(c1)C(C(C)OCCc1cccc(Cl)c1)=CC(C)(C)N2

$$$$
CHEMBL380417
  SciTegic08162514323D

 50 52  0  0  0  0            999 V2000
   -1.2030   -2.0470   -1.3810 S   0  0
   -2.0700   -1.5370    0.1290 C   0  0
   -0.9880   -3.8090   -0.9960 C   0  0
   -2.3770   -0.0610    0.0590 C   0  0
   -0.2680   -4.4860   -2.1290 C   0  0
   -1.2910    0.9630    0.1090 C   0  0
   -3.6620    0.3320   -0.0530 C   0  0
    0.2750   -5.6950   -1.9120 C   0  0
   -1.6250    2.3460    0.0390 C   0  0
    0.0640    0.5630    0.2270 C   0  0
   -4.0650    1.7950   -0.1290 C   0  0
   -2.9160    2.7480   -0.0760 N   0  0
   -0.5840    3.3110    0.0880 C   0  0
    1.0980    1.5290    0.2770 C   0  0
   -4.8160    2.0140   -1.4430 C   0  0
   -4.9980    2.0940    1.0470 C   0  0
    0.7660    2.9040    0.2070 C   0  0
    2.4880    1.1150    0.3980 C   0  0
    3.4840    1.7680   -0.3520 C   0  0
    2.8360    0.0640    1.2660 C   0  0
    4.8260    1.3650   -0.2320 C   0  0
    4.1800   -0.3340    1.3830 C   0  0
    5.1780    0.3140    0.6350 C   0  0
    6.4360   -0.0610    0.7440 O   0  0
    6.7480   -1.0800    1.6840 C   0  0
   -2.9960   -2.1040    0.2250 H   0  0
   -1.4430   -1.7440    0.9960 H   0  0
   -1.9630   -4.2700   -0.8480 H   0  0
   -0.4100   -3.9100   -0.0760 H   0  0
   -0.1390   -4.0940   -3.1270 H   0  0
   -4.4400   -0.4180   -0.0880 H   0  0
    0.8200   -6.3010   -2.6230 H   0  0
    0.1450   -6.0880   -0.9160 H   0  0
    0.3160   -0.4880    0.2790 H   0  0
   -3.1310    3.7250   -0.1290 H   0  0
   -0.8070    4.3670    0.0370 H   0  0
   -4.1880    1.8110   -2.3110 H   0  0
   -5.1680    3.0430   -1.5220 H   0  0
   -5.6860    1.3590   -1.5040 H   0  0
   -4.5000    1.9510    2.0060 H   0  0
   -5.8690    1.4410    1.0210 H   0  0
   -5.3520    3.1250    1.0060 H   0  0
    1.5370    3.6600    0.2440 H   0  0
    3.2340    2.5760   -1.0210 H   0  0
    2.0820   -0.4470    1.8500 H   0  0
    5.5900    1.8670   -0.8090 H   0  0
    4.4430   -1.1410    2.0490 H   0  0
    7.8150   -1.2950    1.6090 H   0  0
    6.3870   -0.7640    2.6620 H   0  0
    6.2050   -1.9800    1.4000 H   0  0
  1  2  1  0
  1  3  1  0
  2  4  1  0
  3  5  1  0
  4  6  1  0
  4  7  2  0
  5  8  2  0
  6  9  2  0
  6 10  1  0
  7 11  1  0
  9 12  1  0
  9 13  1  0
 10 14  2  0
 11 15  1  0
 11 16  1  0
 13 17  2  0
 14 18  1  0
 18 19  2  0
 18 20  1  0
 19 21  1  0
 20 22  2  0
 21 23  2  0
 23 24  1  0
 24 25  1  0
 11 12  1  0
 14 17  1  0
 22 23  1  0
  2 26  1  0
  2 27  1  0
  3 28  1  0
  3 29  1  0
  5 30  1  0
  7 31  1  0
  8 32  1  0
  8 33  1  0
 10 34  1  0
 12 35  1  0
 13 36  1  0
 15 37  1  0
 15 38  1  0
 15 39  1  0
 16 40  1  0
 16 41  1  0
 16 42  1  0
 17 43  1  0
 19 44  1  0
 20 45  1  0
 21 46  1  0
 22 47  1  0
 25 48  1  0
 25 49  1  0
 25 50  1  0
M  END
> <Name>
CHEMBL380417

> <IC50 nM>
2000

> <Molecule_ChEMBL_ID>
CHEMBL380417

> <Smiles>
C=CCSCC1=CC(C)(C)Nc2ccc(-c3ccc(OC)cc3)cc21

$$$$
CHEMBL203341
  SciTegic08162514323D

 53 55  0  0  0  0            999 V2000
   -1.7170   -2.4080   -1.0700 S   0  0
   -2.5840   -1.8980    0.4390 C   0  0
   -1.5020   -4.1680   -0.6840 C   0  0
   -2.8910   -0.4220    0.3690 C   0  0
   -0.7810   -4.8480   -1.8180 C   0  0
   -1.8050    0.6020    0.4200 C   0  0
   -4.1760   -0.0270    0.2580 C   0  0
   -0.2360   -6.0550   -1.6020 C   0  0
   -2.1390    1.9840    0.3500 C   0  0
   -0.4490    0.2010    0.5390 C   0  0
   -4.5780    1.4360    0.1820 C   0  0
   -3.4300    2.3870    0.2340 N   0  0
   -1.0980    2.9490    0.3980 C   0  0
    0.5840    1.1700    0.5880 C   0  0
   -5.3300    1.6520   -1.1330 C   0  0
   -5.5120    1.7340    1.3570 C   0  0
    0.2520    2.5450    0.5180 C   0  0
    1.9750    0.7560    0.7090 C   0  0
    2.9730    1.4060   -0.0410 C   0  0
    2.3220   -0.2970    1.5780 C   0  0
    4.3170    1.0080    0.0760 C   0  0
    3.6660   -0.6930    1.6930 C   0  0
    5.2500    1.6170   -0.6250 O   0  0
    4.6600   -0.0430    0.9430 C   0  0
    6.5920    1.1780   -0.4730 C   0  0
    7.5080    2.0120   -1.3690 C   0  0
   -3.5100   -2.4650    0.5370 H   0  0
   -1.9550   -2.1050    1.3070 H   0  0
   -2.4760   -4.6310   -0.5350 H   0  0
   -0.9240   -4.2720    0.2340 H   0  0
   -0.6540   -4.4550   -2.8170 H   0  0
   -4.9510   -0.7790    0.2230 H   0  0
    0.3070   -6.6600   -2.3130 H   0  0
   -0.3650   -6.4470   -0.6040 H   0  0
   -0.1970   -0.8480    0.5920 H   0  0
   -3.6440    3.3650    0.1840 H   0  0
   -1.3180    4.0060    0.3480 H   0  0
   -4.7010    1.4510   -2.0000 H   0  0
   -5.6820    2.6820   -1.2090 H   0  0
   -6.1990    0.9980   -1.1930 H   0  0
   -5.0140    1.5900    2.3180 H   0  0
   -6.3830    1.0800    1.3340 H   0  0
   -5.8650    2.7640    1.3160 H   0  0
    1.0240    3.2990    0.5550 H   0  0
    2.7190    2.2170   -0.7110 H   0  0
    1.5680   -0.8070    2.1600 H   0  0
    3.9340   -1.5020    2.3590 H   0  0
    5.6920   -0.3520    1.0350 H   0  0
    6.8710    1.2910    0.5740 H   0  0
    6.6410    0.1230   -0.7480 H   0  0
    8.5450    1.6970   -1.2620 H   0  0
    7.2150    1.9140   -2.4160 H   0  0
    7.4490    3.0660   -1.1040 H   0  0
  1  2  1  0
  1  3  1  0
  2  4  1  0
  3  5  1  0
  4  6  1  0
  4  7  2  0
  5  8  2  0
  6  9  2  0
  6 10  1  0
  7 11  1  0
  9 12  1  0
  9 13  1  0
 10 14  2  0
 11 15  1  0
 11 16  1  0
 13 17  2  0
 14 18  1  0
 18 19  2  0
 18 20  1  0
 19 21  1  0
 20 22  2  0
 21 23  1  0
 21 24  2  0
 23 25  1  0
 25 26  1  0
 11 12  1  0
 14 17  1  0
 22 24  1  0
  2 27  1  0
  2 28  1  0
  3 29  1  0
  3 30  1  0
  5 31  1  0
  7 32  1  0
  8 33  1  0
  8 34  1  0
 10 35  1  0
 12 36  1  0
 13 37  1  0
 15 38  1  0
 15 39  1  0
 15 40  1  0
 16 41  1  0
 16 42  1  0
 16 43  1  0
 17 44  1  0
 19 45  1  0
 20 46  1  0
 22 47  1  0
 24 48  1  0
 25 49  1  0
 25 50  1  0
 26 51  1  0
 26 52  1  0
 26 53  1  0
M  END
> <Name>
CHEMBL203341

> <IC50 nM>
2000

> <Molecule_ChEMBL_ID>
CHEMBL203341

> <Smiles>
C=CCSCC1=CC(C)(C)Nc2ccc(-c3cccc(OCC)c3)cc21

$$$$
CHEMBL203104
  SciTegic08162514323D

 49 51  0  0  0  0            999 V2000
   -0.8130   -2.2540   -1.0780 S   0  0
   -1.6760   -1.7420    0.4340 C   0  0
   -0.5960   -4.0140   -0.6910 C   0  0
   -1.9820   -0.2660    0.3630 C   0  0
    0.1210   -4.6930   -1.8280 C   0  0
   -0.8960    0.7580    0.4140 C   0  0
   -3.2680    0.1270    0.2540 C   0  0
    0.6840   -5.8910   -1.6050 C   0  0
   -1.2300    2.1410    0.3440 C   0  0
    0.4590    0.3580    0.5330 C   0  0
   -3.6700    1.5900    0.1760 C   0  0
   -2.5220    2.5430    0.2290 N   0  0
   -0.1890    3.1060    0.3930 C   0  0
    1.4920    1.3260    0.5820 C   0  0
   -4.4220    1.8090   -1.1390 C   0  0
   -4.6040    1.8890    1.3520 C   0  0
    1.1600    2.6990    0.5120 C   0  0
    2.8850    0.9100    0.7030 C   0  0
    3.7360    0.8830   -0.4220 C   0  0
    3.3830    0.5330    1.9670 C   0  0
    5.0760    0.4790   -0.2750 C   0  0
    3.2460    1.2750   -1.7730 C   0  0
    4.7210    0.1310    2.1060 C   0  0
    5.5660    0.1040    0.9840 C   0  0
    2.0760    0.6150   -2.0450 F   0  0
    4.1880    0.9430   -2.7150 F   0  0
    3.0250    2.6290   -1.8050 F   0  0
   -2.6020   -2.3090    0.5330 H   0  0
   -1.0450   -1.9490    1.2990 H   0  0
   -1.5720   -4.4750   -0.5410 H   0  0
   -0.0160   -4.1150    0.2270 H   0  0
    0.2320   -4.3090   -2.8300 H   0  0
   -4.0430   -0.6230    0.2170 H   0  0
    1.2270   -6.4960   -2.3160 H   0  0
    0.5740   -6.2750   -0.6020 H   0  0
    0.7110   -0.6930    0.5860 H   0  0
   -2.7360    3.5200    0.1780 H   0  0
   -0.4100    4.1620    0.3420 H   0  0
   -3.7930    1.6060   -2.0060 H   0  0
   -4.7740    2.8380   -1.2150 H   0  0
   -5.2910    1.1540   -1.1990 H   0  0
   -4.0900    1.7310    2.3010 H   0  0
   -4.9590    2.9180    1.3090 H   0  0
   -5.4730    1.2340    1.3300 H   0  0
    1.9320    3.4550    0.5490 H   0  0
    2.7460    0.5470    2.8400 H   0  0
    5.7340    0.4550   -1.1330 H   0  0
    5.1000   -0.1580    3.0740 H   0  0
    6.5960   -0.2070    1.0920 H   0  0
  1  2  1  0
  1  3  1  0
  2  4  1  0
  3  5  1  0
  4  6  1  0
  4  7  2  0
  5  8  2  0
  6  9  2  0
  6 10  1  0
  7 11  1  0
  9 12  1  0
  9 13  1  0
 10 14  2  0
 11 15  1  0
 11 16  1  0
 13 17  2  0
 14 18  1  0
 18 19  2  0
 18 20  1  0
 19 21  1  0
 19 22  1  0
 20 23  2  0
 21 24  2  0
 22 25  1  0
 22 26  1  0
 22 27  1  0
 11 12  1  0
 14 17  1  0
 23 24  1  0
  2 28  1  0
  2 29  1  0
  3 30  1  0
  3 31  1  0
  5 32  1  0
  7 33  1  0
  8 34  1  0
  8 35  1  0
 10 36  1  0
 12 37  1  0
 13 38  1  0
 15 39  1  0
 15 40  1  0
 15 41  1  0
 16 42  1  0
 16 43  1  0
 16 44  1  0
 17 45  1  0
 20 46  1  0
 21 47  1  0
 23 48  1  0
 24 49  1  0
M  END
> <Name>
CHEMBL203104

> <IC50 nM>
2000

> <Molecule_ChEMBL_ID>
CHEMBL203104

> <Smiles>
C=CCSCC1=CC(C)(C)Nc2ccc(-c3ccccc3C(F)(F)F)cc21

$$$$
CHEMBL206375
  SciTegic08162514323D

 47 49  0  0  0  0            999 V2000
    2.5210   -0.1170    2.2210 Cl  0  0
    3.5740    0.3070    0.9180 C   0  0
    4.9340   -0.0700    0.9860 C   0  0
    3.1030    1.0210   -0.2130 C   0  0
    5.4040   -0.7320    2.0260 O   0  0
    5.8090    0.2620   -0.0620 C   0  0
    1.7090    1.4380   -0.3340 C   0  0
    3.9920    1.3500   -1.2540 C   0  0
    5.3400    0.9690   -1.1800 C   0  0
    0.6760    0.4710   -0.3850 C   0  0
    1.3770    2.8130   -0.4040 C   0  0
   -0.6800    0.8690   -0.5020 C   0  0
    0.0270    3.2170   -0.5230 C   0  0
   -1.0140    2.2540   -0.5720 C   0  0
   -1.7660   -0.1520   -0.5530 C   0  0
   -2.3050    2.6560   -0.6870 N   0  0
   -3.0510    0.2400   -0.6640 C   0  0
   -1.4590   -1.6290   -0.4820 C   0  0
   -3.4530    1.7030   -0.7400 C   0  0
   -1.0840   -2.0900    1.2330 S   0  0
   -4.2050    1.9220   -2.0550 C   0  0
   -4.3870    2.0020    0.4360 C   0  0
   -0.7720   -3.8590    0.9830 C   0  0
   -0.4260   -4.4980    2.3010 C   0  0
   -0.4810   -5.8380    2.3990 C   0  0
    6.3380   -0.9790    2.0470 H   0  0
    6.8480   -0.0290   -0.0100 H   0  0
    3.6500    1.8950   -2.1230 H   0  0
    6.0180    1.2210   -1.9820 H   0  0
    0.9280   -0.5800   -0.3320 H   0  0
    2.1480    3.5680   -0.3670 H   0  0
   -0.1930    4.2750   -0.5740 H   0  0
   -2.5200    3.6330   -0.7400 H   0  0
   -3.8260   -0.5100   -0.6990 H   0  0
   -0.6020   -1.8610   -1.1150 H   0  0
   -2.3170   -2.2030   -0.8340 H   0  0
   -3.5760    1.7190   -2.9220 H   0  0
   -4.5570    2.9490   -2.1330 H   0  0
   -5.0740    1.2660   -2.1150 H   0  0
   -3.8730    1.8420    1.3850 H   0  0
   -4.7420    3.0310    0.3930 H   0  0
   -5.2560    1.3460    0.4120 H   0  0
    0.0530   -3.9860    0.2810 H   0  0
   -1.6600   -4.3300    0.5650 H   0  0
   -0.1310   -3.9820    3.2030 H   0  0
   -0.2660   -6.4360    3.2720 H   0  0
   -0.7740   -6.3540    1.4960 H   0  0
  1  2  1  0
  2  3  2  0
  2  4  1  0
  3  5  1  0
  3  6  1  0
  4  7  1  0
  4  8  2  0
  6  9  2  0
  7 10  2  0
  7 11  1  0
 10 12  1  0
 11 13  2  0
 12 14  2  0
 12 15  1  0
 14 16  1  0
 15 17  2  0
 15 18  1  0
 16 19  1  0
 18 20  1  0
 19 21  1  0
 19 22  1  0
 20 23  1  0
 23 24  1  0
 24 25  2  0
  8  9  1  0
 13 14  1  0
 17 19  1  0
  5 26  1  0
  6 27  1  0
  8 28  1  0
  9 29  1  0
 10 30  1  0
 11 31  1  0
 13 32  1  0
 16 33  1  0
 17 34  1  0
 18 35  1  0
 18 36  1  0
 21 37  1  0
 21 38  1  0
 21 39  1  0
 22 40  1  0
 22 41  1  0
 22 42  1  0
 23 43  1  0
 23 44  1  0
 24 45  1  0
 25 46  1  0
 25 47  1  0
M  END
> <Name>
CHEMBL206375

> <IC50 nM>
129

> <Molecule_ChEMBL_ID>
CHEMBL206375

> <Smiles>
C=CCSCC1=CC(C)(C)Nc2ccc(-c3cccc(O)c3Cl)cc21

$$$$
CHEMBL205414
  SciTegic08162514323D

 53 56  0  0  0  0            999 V2000
   -1.2560   -7.8440   -1.2870 Cl  0  0
   -1.0860   -6.1370   -1.3260 C   0  0
   -0.8280   -5.4810   -2.5430 C   0  0
   -1.2070   -5.3870   -0.1440 C   0  0
   -0.6950   -4.0820   -2.5680 C   0  0
   -1.0680   -3.9900   -0.1840 C   0  0
   -0.8120   -3.3140   -1.3930 C   0  0
   -0.6480   -1.6330   -1.4340 S   0  0
   -1.4650   -1.1370    0.0330 C   0  0
   -1.7710    0.3400   -0.0370 C   0  0
   -0.6850    1.3630    0.0140 C   0  0
   -3.0550    0.7340   -0.1460 C   0  0
   -1.0170    2.7460   -0.0570 C   0  0
    0.6720    0.9630    0.1330 C   0  0
   -3.4570    2.1950   -0.2230 C   0  0
   -2.3100    3.1490   -0.1700 N   0  0
    0.0240    3.7110   -0.0060 C   0  0
    1.7030    1.9320    0.1820 C   0  0
   -4.2110    2.4140   -1.5390 C   0  0
   -4.3910    2.4940    0.9530 C   0  0
    1.3710    3.3050    0.1110 C   0  0
    3.0960    1.5160    0.3050 C   0  0
    3.4850    0.5860    1.2910 C   0  0
    4.0570    2.0530   -0.5740 C   0  0
    2.6020    0.0680    2.1250 O   0  0
    4.8320    0.1990    1.3910 C   0  0
    5.4030    1.6620   -0.4670 C   0  0
    3.0690   -0.8420    3.1090 C   0  0
    5.7910    0.7360    0.5140 C   0  0
   -0.7300   -6.0390   -3.4630 H   0  0
   -1.4040   -5.8730    0.8010 H   0  0
   -0.4980   -3.5880   -3.5080 H   0  0
   -1.1620   -3.4240    0.7310 H   0  0
   -2.3890   -1.7010    0.1450 H   0  0
   -0.8240   -1.3420    0.8930 H   0  0
   -3.8320   -0.0180   -0.1840 H   0  0
    0.9220   -0.0860    0.1860 H   0  0
   -2.5250    4.1270   -0.2230 H   0  0
   -0.1990    4.7680   -0.0590 H   0  0
   -3.5800    2.2130   -2.4060 H   0  0
   -4.5620    3.4430   -1.6150 H   0  0
   -5.0800    1.7600   -1.5980 H   0  0
   -3.8940    2.3520    1.9120 H   0  0
   -5.2640    1.8420    0.9280 H   0  0
   -4.7460    3.5250    0.9100 H   0  0
    2.1430    4.0610    0.1480 H   0  0
    3.7760    2.7680   -1.3340 H   0  0
    5.1370   -0.5120    2.1430 H   0  0
    6.1390    2.0760   -1.1430 H   0  0
    2.2360   -1.0860    3.7720 H   0  0
    3.5410   -1.6820    2.6000 H   0  0
    3.8320   -0.3420    3.7050 H   0  0
    6.8240    0.4360    0.5960 H   0  0
  1  2  1  0
  2  3  2  0
  2  4  1  0
  3  5  1  0
  4  6  2  0
  5  7  2  0
  7  8  1  0
  8  9  1  0
  9 10  1  0
 10 11  1  0
 10 12  2  0
 11 13  2  0
 11 14  1  0
 12 15  1  0
 13 16  1  0
 13 17  1  0
 14 18  2  0
 15 19  1  0
 15 20  1  0
 17 21  2  0
 18 22  1  0
 22 23  2  0
 22 24  1  0
 23 25  1  0
 23 26  1  0
 24 27  2  0
 25 28  1  0
 26 29  2  0
  6  7  1  0
 15 16  1  0
 18 21  1  0
 27 29  1  0
  3 30  1  0
  4 31  1  0
  5 32  1  0
  6 33  1  0
  9 34  1  0
  9 35  1  0
 12 36  1  0
 14 37  1  0
 16 38  1  0
 17 39  1  0
 19 40  1  0
 19 41  1  0
 19 42  1  0
 20 43  1  0
 20 44  1  0
 20 45  1  0
 21 46  1  0
 24 47  1  0
 26 48  1  0
 27 49  1  0
 28 50  1  0
 28 51  1  0
 28 52  1  0
 29 53  1  0
M  END
> <Name>
CHEMBL205414

> <IC50 nM>
800

> <Molecule_ChEMBL_ID>
CHEMBL205414

> <Smiles>
COc1ccccc1-c1ccc2c(c1)C(CSc1ccc(Cl)cc1)=CC(C)(C)N2

$$$$
CHEMBL204332
  SciTegic08162514323D

 58 60  0  0  1  0            999 V2000
   -1.9670   -2.1990   -0.0680 S   0  0
   -0.5660   -1.3240   -0.8240 C   0  0
   -1.7260   -1.6720    1.6520 C   0  0
   -0.8730    0.1520   -0.8950 C   0  0
   -2.7770   -2.2970    2.5680 C   0  0  2  0  0  0
    0.2130    1.1760   -0.8440 C   0  0
   -2.1580    0.5450   -1.0040 C   0  0
   -2.6330   -3.8150    2.6840 C   0  0
   -4.2010   -1.8650    2.2130 C   0  0
   -0.1210    2.5590   -0.9140 C   0  0
    1.5690    0.7750   -0.7250 C   0  0
   -2.5600    2.0080   -1.0800 C   0  0
   -3.5160   -4.4080    3.7810 C   0  0
   -1.4120    2.9610   -1.0270 N   0  0
    0.9200    3.5230   -0.8630 C   0  0
    2.6020    1.7420   -0.6760 C   0  0
   -3.3120    2.2270   -2.3970 C   0  0
   -3.4940    2.3070    0.0960 C   0  0
    2.2700    3.1170   -0.7440 C   0  0
    3.9920    1.3280   -0.5530 C   0  0
    4.5240    0.3380   -1.4080 C   0  0
    4.8090    1.9240    0.4280 C   0  0
    3.7790   -0.2340   -2.3340 O   0  0
    5.8690   -0.0450   -1.2720 C   0  0
    6.1530    1.5330    0.5570 C   0  0
    4.3690   -1.2540   -3.1270 C   0  0
    6.6840    0.5490   -0.2930 C   0  0
   -0.3920   -1.7150   -1.8260 H   0  0
    0.3300   -1.4880   -0.2250 H   0  0
   -0.7210   -1.9410    1.9760 H   0  0
   -1.7640   -0.5840    1.7070 H   0  0
   -2.5580   -2.0760    3.6130 H   0  0
   -2.9350   -0.2050   -1.0390 H   0  0
   -2.8320   -4.2950    1.7260 H   0  0
   -1.5900   -4.0900    2.8360 H   0  0
   -4.2870   -0.7810    2.1290 H   0  0
   -4.9060   -2.1970    2.9770 H   0  0
   -4.5100   -2.3010    1.2640 H   0  0
    1.8200   -0.2750   -0.6720 H   0  0
   -3.3240   -5.4770    3.8940 H   0  0
   -3.3320   -3.9140    4.7340 H   0  0
   -4.5700   -4.2830    3.5390 H   0  0
   -1.6270    3.9380   -1.0800 H   0  0
    0.6970    4.5800   -0.9160 H   0  0
   -2.6830    2.0230   -3.2620 H   0  0
   -3.6640    3.2540   -2.4730 H   0  0
   -4.1820    1.5720   -2.4550 H   0  0
   -2.9960    2.1640    1.0550 H   0  0
   -4.3650    1.6520    0.0700 H   0  0
   -3.8480    3.3360    0.0530 H   0  0
    3.0410    3.8730   -0.7090 H   0  0
    4.4160    2.6840    1.0900 H   0  0
    6.2830   -0.8010   -1.9220 H   0  0
    6.7760    1.9920    1.3100 H   0  0
    4.7830   -2.1090   -2.5940 H   0  0
    5.1720   -0.8090   -3.7150 H   0  0
    3.6150   -1.6250   -3.8200 H   0  0
    7.7150    0.2500   -0.1930 H   0  0
  1  2  1  0
  1  3  1  0
  2  4  1  0
  3  5  1  0
  4  6  1  0
  4  7  2  0
  5  8  1  0
  5  9  1  0
  6 10  2  0
  6 11  1  0
  7 12  1  0
  8 13  1  0
 10 14  1  0
 10 15  1  0
 11 16  2  0
 12 17  1  0
 12 18  1  0
 15 19  2  0
 16 20  1  0
 20 21  2  0
 20 22  1  0
 21 23  1  0
 21 24  1  0
 22 25  2  0
 23 26  1  0
 24 27  2  0
 12 14  1  0
 16 19  1  0
 25 27  1  0
  2 28  1  0
  2 29  1  0
  3 30  1  0
  3 31  1  0
  5 32  1  0
  7 33  1  0
  8 34  1  0
  8 35  1  0
  9 36  1  0
  9 37  1  0
  9 38  1  0
 11 39  1  0
 13 40  1  0
 13 41  1  0
 13 42  1  0
 14 43  1  0
 15 44  1  0
 17 45  1  0
 17 46  1  0
 17 47  1  0
 18 48  1  0
 18 49  1  0
 18 50  1  0
 19 51  1  0
 22 52  1  0
 24 53  1  0
 25 54  1  0
 26 55  1  0
 26 56  1  0
 26 57  1  0
 27 58  1  0
M  END
> <Name>
CHEMBL204332

> <IC50 nM>
303

> <Molecule_ChEMBL_ID>
CHEMBL204332

> <Smiles>
CCC(C)CSCC1=CC(C)(C)Nc2ccc(-c3ccccc3OC)cc21

$$$$
CHEMBL518451
  SciTegic08162514323D

 58 60  0  0  1  0            999 V2000
    3.9390   -0.4160    0.0160 Cl  0  0
    4.6970   -1.9450    0.2230 C   0  0
    3.9650   -3.1520    0.1350 C   0  0
    6.0800   -1.9800    0.4840 C   0  0
    4.6310   -4.3890    0.3120 C   0  0
    2.4920   -3.1230   -0.1450 C   0  0
    6.7380   -3.2110    0.6580 C   0  0
    3.7890   -5.8870    0.2190 Cl  0  0
    6.0140   -4.4100    0.5720 C   0  0
    2.0740   -2.8510   -1.2460 O   0  0
    1.6250   -3.4100    0.8710 N   0  0
    8.4240   -3.2460    0.9710 Cl  0  0
    0.1860   -3.5160    0.5840 C   0  0
    2.0940   -3.6170    2.2480 C   0  0
   -0.5180   -2.1780    0.8180 C   0  0  2  0  0  0
    2.8050   -2.3730    2.7770 C   0  0
   -0.5980   -1.9610    2.2090 O   0  0
   -1.9400   -2.3340    0.2770 C   0  0
    0.2270   -1.0000    0.1910 C   0  0
   -2.4670   -3.5210    0.7150 F   0  0
   -1.9100   -2.3220   -1.0920 F   0  0
   -2.7150   -1.2970    0.7270 F   0  0
   -0.4960    0.2600    0.4160 N   0  0
   -1.1410    0.8600   -0.6290 C   0  0
   -1.1170    0.3580   -1.7290 O   0  0
   -1.8590    2.1080   -0.4100 C   0  0
   -2.5680    2.8540   -1.3830 C   0  0
   -1.9690    2.7910    0.8180 C   0  0
   -3.0700    3.9320   -0.7290 N   0  0
   -2.7150    2.5040   -2.8090 N   0  0
   -2.7110    3.8830    0.5570 N   0  0
   -3.8220    4.9260   -1.2720 C   0  0
   -4.9690    4.6100   -2.0250 C   0  0
   -3.4590    6.2720   -1.0800 C   0  0
   -5.7480    5.6370   -2.5860 C   0  0
   -4.2380    7.2990   -1.6430 C   0  0
   -5.3830    6.9810   -2.3950 C   0  0
   -6.1190    7.9530   -2.9280 F   0  0
    6.6410   -1.0580    0.5510 H   0  0
    6.5240   -5.3550    0.7090 H   0  0
   -0.2480   -4.2950    1.2090 H   0  0
    0.0490   -3.8460   -0.4450 H   0  0
    1.2440   -3.8750    2.8810 H   0  0
    2.7580   -4.4820    2.2730 H   0  0
    2.6680   -2.2810    3.8550 H   0  0
    3.8710   -2.4140    2.5570 H   0  0
    2.4020   -1.4730    2.3130 H   0  0
    0.3010   -1.7640    2.5200 H   0  0
    0.3570   -1.1520   -0.8790 H   0  0
    1.2320   -0.9140    0.6050 H   0  0
   -0.5180    0.6760    1.3260 H   0  0
   -1.5610    2.5310    1.7870 H   0  0
   -2.3130    1.6720   -3.1930 H   0  0
   -3.2270    3.1040   -3.4220 H   0  0
   -5.2660    3.5820   -2.1840 H   0  0
   -2.5820    6.5350   -0.5040 H   0  0
   -6.6250    5.3910   -3.1640 H   0  0
   -3.9550    8.3300   -1.4940 H   0  0
  1  2  1  0
  2  3  2  0
  2  4  1  0
  3  5  1  0
  3  6  1  0
  4  7  2  0
  5  8  1  0
  5  9  2  0
  6 10  2  0
  6 11  1  0
  7 12  1  0
 11 13  1  0
 11 14  1  0
 13 15  1  0
 14 16  1  0
 15 17  1  0
 15 18  1  0
 15 19  1  0
 18 20  1  0
 18 21  1  0
 18 22  1  0
 19 23  1  0
 23 24  1  0
 24 25  2  0
 24 26  1  0
 26 27  2  0
 26 28  1  0
 27 29  1  0
 27 30  1  0
 28 31  2  0
 29 32  1  0
 32 33  2  0
 32 34  1  0
 33 35  1  0
 34 36  2  0
 35 37  2  0
 37 38  1  0
  7  9  1  0
 29 31  1  0
 36 37  1  0
  4 39  1  0
  9 40  1  0
 13 41  1  0
 13 42  1  0
 14 43  1  0
 14 44  1  0
 16 45  1  0
 16 46  1  0
 16 47  1  0
 17 48  1  0
 19 49  1  0
 19 50  1  0
 23 51  1  0
 28 52  1  0
 30 53  1  0
 30 54  1  0
 33 55  1  0
 34 56  1  0
 35 57  1  0
 36 58  1  0
M  END
> <Name>
CHEMBL518451

> <IC50 nM>
6.31

> <Molecule_ChEMBL_ID>
CHEMBL518451

> <Smiles>
CCN(CC(O)(CNC(=O)c1cnn(-c2ccc(F)cc2)c1N)C(F)(F)F)C(=O)c1c(Cl)cc(Cl)cc1Cl

$$$$
CHEMBL212059
  SciTegic08162514323D

 63 67  0  0  1  0            999 V2000
   -0.9510   -1.6520   -4.0000 F   0  0
   -1.8500   -1.0940   -3.1290 C   0  0
   -2.0080    0.2360   -3.4260 F   0  0
   -3.0590   -1.7320   -3.2420 F   0  0
   -1.3320   -1.2360   -1.6970 C   0  0  3  0  0  0
   -1.2730   -2.6110   -1.3850 O   0  0
    0.0620   -0.6680   -1.7110 C   0  0
   -2.2320   -0.5510   -0.6700 C   0  0
    1.0290   -1.3910   -1.7270 O   0  0
    0.2150    0.6890   -1.7050 N   0  0
   -2.0160   -1.0780    0.7540 C   0  0  3  0  0  0
    1.4430    1.2270   -1.7170 C   0  0
   -0.6990   -1.8050    0.7970 C   0  0
   -1.9980    0.0840    1.6820 C   0  0
   -3.2110   -1.9820    1.1460 C   0  0
    1.7320    2.3730   -0.9320 C   0  0
    2.4690    0.6520   -2.5180 C   0  0
   -0.6350   -3.2340    0.8870 C   0  0
    0.5250   -1.0760    0.7270 C   0  0
   -2.8630    1.1720    1.4630 C   0  0
   -1.1150    0.0980    2.7750 C   0  0
   -3.1250   -3.3460    0.4670 C   0  0
    3.0350    2.9360   -0.9470 C   0  0
    3.7680    1.2110   -2.5330 C   0  0
    0.6250   -3.8850    0.9410 C   0  0
   -1.8610   -4.0760    0.9320 C   0  0
    1.7710   -1.7360    0.7790 C   0  0
   -2.8460    2.2700    2.3400 C   0  0
   -1.1000    1.1950    3.6520 C   0  0
    4.0430    2.3560   -1.7460 C   0  0
    3.3790    4.1410   -0.1390 C   0  0
    1.8220   -3.1410    0.8910 C   0  0
   -1.9630    2.2810    3.4360 C   0  0
    5.3890    2.9920   -1.7210 C   0  0
    4.5720    4.6290   -0.1760 N   0  0
    2.3520    4.8130    0.7360 C   0  0
    6.3150    2.5610   -2.3710 O   0  0
    5.6680    4.0860   -0.9750 O   0  0
   -0.7010   -3.0310   -2.0470 H   0  0
   -3.2790   -0.6370   -0.9590 H   0  0
   -2.1020    0.5310   -0.7050 H   0  0
   -0.5860    1.2870   -1.6910 H   0  0
   -4.1580   -1.5000    0.8930 H   0  0
   -3.2400   -2.1470    2.2270 H   0  0
    0.9630    2.8180   -0.3180 H   0  0
    2.2700   -0.2230   -3.1230 H   0  0
    0.5180    0.0000    0.6330 H   0  0
   -3.5430    1.1680    0.6250 H   0  0
   -0.4490   -0.7340    2.9490 H   0  0
   -3.1190   -3.2250   -0.6170 H   0  0
   -4.0060   -3.9430    0.7050 H   0  0
    4.5370    0.7640   -3.1470 H   0  0
    0.6760   -4.9610    1.0210 H   0  0
   -2.0000   -4.4140    1.9590 H   0  0
   -1.7250   -4.9750    0.3260 H   0  0
    2.6880   -1.1660    0.7340 H   0  0
   -3.5100    3.1040    2.1740 H   0  0
   -0.4220    1.2050    4.4940 H   0  0
    2.7750   -3.6470    0.9370 H   0  0
   -1.9510    3.1270    4.1090 H   0  0
    2.8010    5.6600    1.2540 H   0  0
    1.4940    5.1190    0.1350 H   0  0
    1.9940    4.1130    1.4940 H   0  0
  1  2  1  0
  2  3  1  0
  2  4  1  0
  2  5  1  0
  5  6  1  0
  5  7  1  0
  5  8  1  0
  7  9  2  0
  7 10  1  0
  8 11  1  0
 10 12  1  0
 11 13  1  0
 11 14  1  0
 11 15  1  0
 12 16  2  0
 12 17  1  0
 13 18  2  0
 13 19  1  0
 14 20  2  0
 14 21  1  0
 15 22  1  0
 16 23  1  0
 17 24  2  0
 18 25  1  0
 18 26  1  0
 19 27  2  0
 20 28  1  0
 21 29  2  0
 23 30  2  0
 23 31  1  0
 25 32  2  0
 28 33  2  0
 30 34  1  0
 31 35  2  0
 31 36  1  0
 34 37  2  0
 34 38  1  0
 22 26  1  0
 24 30  1  0
 27 32  1  0
 29 33  1  0
 35 38  1  0
  6 39  1  0
  8 40  1  0
  8 41  1  0
 10 42  1  0
 15 43  1  0
 15 44  1  0
 16 45  1  0
 17 46  1  0
 19 47  1  0
 20 48  1  0
 21 49  1  0
 22 50  1  0
 22 51  1  0
 24 52  1  0
 25 53  1  0
 26 54  1  0
 26 55  1  0
 27 56  1  0
 28 57  1  0
 29 58  1  0
 32 59  1  0
 33 60  1  0
 36 61  1  0
 36 62  1  0
 36 63  1  0
M  END
> <Name>
CHEMBL212059

> <IC50 nM>
14.45

> <Molecule_ChEMBL_ID>
CHEMBL212059

> <Smiles>
Cc1noc(=O)c2ccc(NC(=O)C(O)(CC3(c4ccccc4)CCCc4ccccc43)C(F)(F)F)cc12

$$$$
CHEMBL554774
  SciTegic08162514323D

 90 95  0  0  1  0            999 V2000
    5.8220   -2.1800   -1.7340 F   0  0
    5.6900   -1.4630   -0.5610 C   0  0  1  0  0  0
    7.1450   -1.1450   -0.0660 C   0  0  1  0  0  0
    4.8240   -0.2210   -0.9650 C   0  0  2  0  0  0
    4.9670   -2.3970    0.4550 C   0  0  1  0  0  0
    7.9010   -2.4380    0.2560 C   0  0
    7.8810   -0.2540   -1.0640 C   0  0
    7.1410   -0.3710    1.2620 C   0  0
    4.8730    0.7910    0.0250 O   0  0
    3.3420   -0.5530   -1.2660 C   0  0
    3.5290   -2.6800   -0.0140 C   0  0  2  0  0  0
    5.7380   -3.7190    0.6450 C   0  0
    9.1620   -2.6600   -0.1740 C   0  0
    7.1840   -3.4750    1.0980 C   0  0
    9.1390   -0.5040   -1.4770 C   0  0
    2.7030   -1.3910   -0.1430 C   0  0  2  0  0  0
    2.6640   -3.5550    0.8950 C   0  0
    9.8710   -1.6840   -1.0060 C   0  0
    1.2810   -1.9570   -0.3750 C   0  0  2  0  0  0
    2.6680   -0.6170    1.1860 C   0  0
    1.2210   -3.0470    0.7230 C   0  0  1  0  0  0
   11.0330   -1.8460   -1.3010 O   0  0
    1.1780   -2.5450   -1.6620 O   0  0
    0.1780   -0.9280   -0.2700 C   0  0
    0.2300   -4.1860    0.4730 C   0  0
    0.4300    0.2340   -0.0550 O   0  0
   -1.1170   -1.3360   -0.4200 N   0  0
   -2.2010   -0.3500   -0.3200 C   0  0
   -3.5660   -1.0120   -0.5180 C   0  0
   -4.6500   -0.0250   -0.4180 N   0  0
   -5.9450   -0.4360   -0.5680 C   0  0
   -6.1970   -1.5980   -0.7830 O   0  0
   -7.0240    0.5410   -0.4710 C   0  0
   -8.3560    0.2660   -0.6020 N   0  0
   -6.8480    1.9060   -0.2270 C   0  0
   -9.0240    1.4410   -0.4410 C   0  0
   -8.9630   -1.0490   -0.8630 C   0  0
   -8.1150    2.4770   -0.2090 C   0  0
   -8.4380    3.8950    0.0140 N   0  0
   -7.4360    4.7970    0.2300 C   0  0
   -6.2830    4.4380    0.2420 O   0  0
   -7.7660    6.1990    0.4490 C   0  0
   -9.0330    6.7030    0.4550 N   0  0
   -6.8610    7.1950    0.6760 N   0  0
   -8.9220    8.0270    0.6890 C   0  0
   -7.5740    8.3340    0.8260 C   0  0
   -5.3970    7.0660    0.7460 C   0  0
    5.2420    0.2380   -1.8630 H   0  0
    4.9280   -1.8930    1.4240 H   0  0
    7.3830    0.6170   -1.4650 H   0  0
    8.1000   -0.4390    1.7750 H   0  0
    6.3750   -0.7620    1.9320 H   0  0
    6.9280    0.6840    1.0920 H   0  0
    5.2990    1.5640   -0.3770 H   0  0
    3.3010   -1.1070   -2.2050 H   0  0
    2.7660    0.3590   -1.4320 H   0  0
    3.5820   -3.1680   -0.9790 H   0  0
    5.7400   -4.2950   -0.2830 H   0  0
    5.2380   -4.3440    1.3870 H   0  0
    9.6660   -3.5760    0.0980 H   0  0
    7.7310   -4.4220    1.0920 H   0  0
    7.1820   -3.1370    2.1350 H   0  0
    9.6110    0.1820   -2.1660 H   0  0
    2.7810   -4.5980    0.6370 H   0  0
    2.9730   -3.4510    1.9260 H   0  0
    3.6580   -0.5350    1.6350 H   0  0
    2.0180   -1.1130    1.9040 H   0  0
    2.2870    0.3930    1.0350 H   0  0
    0.9360   -2.5820    1.6540 H   0  0
    0.2890   -2.9300   -1.7300 H   0  0
    0.4040   -5.0080    1.1680 H   0  0
   -0.7950   -3.8360    0.5840 H   0  0
    0.3420   -4.5780   -0.5390 H   0  0
   -1.3160   -2.3010   -0.5980 H   0  0
   -2.0430    0.4340   -1.0610 H   0  0
   -2.1500    0.1430    0.6520 H   0  0
   -3.7250   -1.7970    0.2230 H   0  0
   -3.6170   -1.5040   -1.4900 H   0  0
   -4.4430    0.9360   -0.2400 H   0  0
   -5.9060    2.4200   -0.0800 H   0  0
  -10.1020    1.5200   -0.4960 H   0  0
   -8.2440   -1.8630   -0.9570 H   0  0
   -9.5390   -1.0040   -1.7870 H   0  0
   -9.6490   -1.2990   -0.0550 H   0  0
   -9.3930    4.1930    0.0040 H   0  0
   -9.7660    8.7010    0.7500 H   0  0
   -7.1330    9.3030    1.0200 H   0  0
   -5.0290    6.0530    0.5960 H   0  0
   -5.0490    7.4060    1.7210 H   0  0
   -4.9400    7.7030   -0.0120 H   0  0
  2  1  1  0
  2  3  1  0
  2  4  1  0
  2  5  1  0
  3  6  1  0
  3  7  1  0
  3  8  1  0
  4  9  1  0
  4 10  1  0
  5 11  1  0
  5 12  1  0
  6 13  2  0
  6 14  1  0
  7 15  2  0
 10 16  1  0
 11 17  1  0
 13 18  1  0
 16 19  1  0
 16 20  1  0
 17 21  1  0
 18 22  2  0
 19 23  1  0
 19 24  1  0
 21 25  1  0
 24 26  2  0
 24 27  1  0
 27 28  1  0
 28 29  1  0
 29 30  1  0
 30 31  1  0
 31 32  2  0
 31 33  1  0
 33 34  1  0
 33 35  2  0
 34 36  1  0
 34 37  1  0
 35 38  1  0
 38 39  1  0
 39 40  1  0
 40 41  2  0
 40 42  1  0
 42 43  2  0
 42 44  1  0
 43 45  1  0
 44 46  1  0
 44 47  1  0
 11 16  1  0
 12 14  1  0
 15 18  1  0
 19 21  1  0
 36 38  2  0
 45 46  2  0
  4 48  1  0
  5 49  1  0
  7 50  1  0
  8 51  1  0
  8 52  1  0
  8 53  1  0
  9 54  1  0
 10 55  1  0
 10 56  1  0
 11 57  1  0
 12 58  1  0
 12 59  1  0
 13 60  1  0
 14 61  1  0
 14 62  1  0
 15 63  1  0
 17 64  1  0
 17 65  1  0
 20 66  1  0
 20 67  1  0
 20 68  1  0
 21 69  1  0
 23 70  1  0
 25 71  1  0
 25 72  1  0
 25 73  1  0
 27 74  1  0
 28 75  1  0
 28 76  1  0
 29 77  1  0
 29 78  1  0
 30 79  1  0
 35 80  1  0
 36 81  1  0
 37 82  1  0
 37 83  1  0
 37 84  1  0
 39 85  1  0
 45 86  1  0
 46 87  1  0
 47 88  1  0
 47 89  1  0
 47 90  1  0
M  END
> <Name>
CHEMBL554774

> <IC50 nM>
460

> <Molecule_ChEMBL_ID>
CHEMBL554774

> <Smiles>
C[C@H]1C[C@@H]2[C@H]3CCC4=CC(=O)C=C[C@@]4(C)[C@]3(F)[C@H](O)C[C@@]2(C)[C@]1(O)C(=O)NCCNC(=O)c1cc(NC(=O)c2nccn2C)cn1C

$$$$
CHEMBL552770
  SciTegic08162514323D

 99102  0  0  1  0            999 V2000
    4.7770    3.1130    0.3770 S   0  0
    4.6470    1.4570    0.6270 C   0  0
    3.4730    0.7640    0.5330 N   0  0
    5.6990    0.6500    0.9490 N   0  0
    2.2360    1.4810    0.1950 C   0  0
    7.0410    1.2340    1.0900 C   0  0
    1.0450    0.5230    0.1430 C   0  0
    8.0700    0.1640    1.4510 C   0  0
   -0.4820    1.4100   -0.2770 S   0  0
    9.4830    0.7300    1.6090 C   0  0
   -1.6330    0.0060   -0.2480 C   0  0
   10.4400   -0.3400    1.8180 N   0  0
   -3.0220    0.4880   -0.5760 C   0  0
   11.7890    0.1210    1.5370 C   0  0
   10.3500   -0.8460    3.1780 C   0  0
   -3.2480    1.6620   -0.7480 O   0  0
   -4.1230   -0.5410   -0.6820 C   0  0  2  0  0  0
   12.0690    0.0740    0.0350 C   0  0
   -4.0200   -1.1290   -1.9690 O   0  0
   -5.5450    0.0250   -0.4510 C   0  0  2  0  0  0
   -4.0640   -1.6330    0.4140 C   0  0  1  0  0  0
   13.4980    0.4900   -0.3120 C   0  0
   -6.3710   -1.2640   -0.3200 C   0  0  1  0  0  0
   -6.1840    0.8630   -1.5720 C   0  0
   -5.5120    0.7990    0.8790 C   0  0
   -5.5080   -2.1370    0.5900 C   0  0
   -3.0740   -2.7720    0.1640 C   0  0
   13.7250    0.4320   -1.7640 N   0  0
   -7.8110   -0.9800    0.1480 C   0  0  1  0  0  0
   -7.6680    1.1970   -1.2710 C   0  0  1  0  0  0
   14.9490    0.7700   -2.2660 C   0  0
   -8.5310   -0.0470   -0.8690 C   0  0  1  0  0  0
   -8.5820   -2.3030    0.3380 C   0  0
   -7.7150    2.2070   -0.2830 O   0  0
   15.8400    1.1130   -1.5230 O   0  0
   15.1640    0.7050   -3.7540 C   0  0
   -8.6640   -0.7640   -2.0430 F   0  0
   -9.9880    0.2730   -0.3730 C   0  0  2  0  0  0
  -10.0270   -2.0590    0.7930 C   0  0
  -10.7440   -1.0200   -0.0530 C   0  0
  -10.7230    1.1600   -1.3730 C   0  0
   -9.9830    1.0470    0.9530 C   0  0
  -12.0060   -1.2440   -0.4800 C   0  0
  -11.9810    0.9140   -1.7850 C   0  0
  -12.7130   -0.2660   -1.3120 C   0  0
  -13.8750   -0.4260   -1.6070 O   0  0
    3.4590   -0.2230    0.6950 H   0  0
    5.5510   -0.3300    1.0840 H   0  0
    2.0650    2.2680    0.9300 H   0  0
    2.3650    1.9880   -0.7620 H   0  0
    7.0140    2.0140    1.8520 H   0  0
    7.3150    1.7340    0.1600 H   0  0
    1.2190   -0.2660   -0.5880 H   0  0
    0.9180    0.0120    1.0960 H   0  0
    8.0610   -0.6430    0.7190 H   0  0
    7.7680   -0.3750    2.3500 H   0  0
    9.5260    1.4260    2.4470 H   0  0
    9.7680    1.3070    0.7290 H   0  0
   -1.3160   -0.7380   -0.9800 H   0  0
   -1.6230   -0.4530    0.7400 H   0  0
   12.5060   -0.4940    2.0820 H   0  0
   11.9140    1.1330    1.9220 H   0  0
    9.3650   -1.2300    3.4490 H   0  0
   10.6000   -0.0510    3.8790 H   0  0
   11.0720   -1.6500    3.3170 H   0  0
   11.3460    0.6840   -0.5100 H   0  0
   11.8440   -0.9140   -0.3690 H   0  0
   -3.1250   -1.4940   -2.0450 H   0  0
   -3.7750   -1.1680    1.3480 H   0  0
   14.2190   -0.1560    0.1880 H   0  0
   13.7030    1.5000    0.0410 H   0  0
   -6.4240   -1.7520   -1.2850 H   0  0
   -6.1430    0.3090   -2.5120 H   0  0
   -5.6070    1.7750   -1.7380 H   0  0
   -6.5140    1.0020    1.2580 H   0  0
   -5.0020    1.7560    0.7560 H   0  0
   -4.9770    0.2320    1.6430 H   0  0
   -5.6250   -3.1820    0.3320 H   0  0
   -5.8150   -2.0330    1.6190 H   0  0
   -3.0700   -3.4690    1.0020 H   0  0
   -3.3320   -3.3130   -0.7480 H   0  0
   -2.0630   -2.3850    0.0450 H   0  0
   12.9900    0.1480   -2.3810 H   0  0
   -7.7720   -0.4770    1.1150 H   0  0
   -8.0840    1.6540   -2.1700 H   0  0
   -8.5840   -2.8770   -0.5900 H   0  0
   -8.0840   -2.9300    1.0800 H   0  0
   -8.0490    3.0120   -0.7110 H   0  0
   16.1700    0.9900   -4.0610 H   0  0
   14.4610    1.3650   -4.2600 H   0  0
   14.9830   -0.3090   -4.1110 H   0  0
  -10.5740   -3.0020    0.7870 H   0  0
  -10.0260   -1.7170    1.8280 H   0  0
  -10.2250    2.0330   -1.7730 H   0  0
  -10.9380    0.9690    1.4730 H   0  0
   -9.7810    2.1040    0.7810 H   0  0
   -9.2110    0.6640    1.6190 H   0  0
  -12.5100   -2.1560   -0.2090 H   0  0
  -12.4510    1.5980   -2.4750 H   0  0
  1  2  2  0
  2  3  1  0
  2  4  1  0
  3  5  1  0
  4  6  1  0
  5  7  1  0
  6  8  1  0
  7  9  1  0
  8 10  1  0
  9 11  1  0
 10 12  1  0
 11 13  1  0
 12 14  1  0
 12 15  1  0
 13 16  2  0
 13 17  1  0
 14 18  1  0
 17 19  1  0
 17 20  1  0
 17 21  1  0
 18 22  1  0
 20 23  1  0
 20 24  1  0
 20 25  1  0
 21 26  1  0
 21 27  1  0
 22 28  1  0
 23 29  1  0
 24 30  1  0
 28 31  1  0
 29 32  1  0
 29 33  1  0
 30 34  1  0
 31 35  2  0
 31 36  1  0
 32 37  1  0
 32 38  1  0
 33 39  1  0
 38 40  1  0
 38 41  1  0
 38 42  1  0
 40 43  2  0
 41 44  2  0
 43 45  1  0
 45 46  2  0
 23 26  1  0
 30 32  1  0
 39 40  1  0
 44 45  1  0
  3 47  1  0
  4 48  1  0
  5 49  1  0
  5 50  1  0
  6 51  1  0
  6 52  1  0
  7 53  1  0
  7 54  1  0
  8 55  1  0
  8 56  1  0
 10 57  1  0
 10 58  1  0
 11 59  1  0
 11 60  1  0
 14 61  1  0
 14 62  1  0
 15 63  1  0
 15 64  1  0
 15 65  1  0
 18 66  1  0
 18 67  1  0
 19 68  1  0
 21 69  1  0
 22 70  1  0
 22 71  1  0
 23 72  1  0
 24 73  1  0
 24 74  1  0
 25 75  1  0
 25 76  1  0
 25 77  1  0
 26 78  1  0
 26 79  1  0
 27 80  1  0
 27 81  1  0
 27 82  1  0
 28 83  1  0
 29 84  1  0
 30 85  1  0
 33 86  1  0
 33 87  1  0
 34 88  1  0
 36 89  1  0
 36 90  1  0
 36 91  1  0
 39 92  1  0
 39 93  1  0
 41 94  1  0
 42 95  1  0
 42 96  1  0
 42 97  1  0
 43 98  1  0
 44 99  1  0
M  END
> <Name>
CHEMBL552770

> <IC50 nM>
8.3

> <Molecule_ChEMBL_ID>
CHEMBL552770

> <Smiles>
CC(=O)NCCCN(C)CCCNC(=S)NCCSCC(=O)[C@@]1(O)[C@H](C)C[C@H]2[C@@H]3CCC4=CC(=O)C=C[C@]4(C)[C@@]3(F)[C@@H](O)C[C@@]21C

$$$$
CHEMBL386448
  SciTegic08162514323D

 60 64  0  0  1  0            999 V2000
    2.1650    1.5990   -2.1640 F   0  0
    1.7430    2.2790   -1.0510 C   0  0
    2.7970    2.4490   -0.1920 F   0  0
    1.2530    3.5040   -1.4230 F   0  0
    0.6410    1.4800   -0.3530 C   0  0  3  0  0  0
   -0.3760    1.2180   -1.2930 O   0  0
    1.2820    0.1850    0.0670 C   0  0
    0.0210    2.2330    0.8240 C   0  0
    1.5970   -0.0090    1.2180 O   0  0
    1.5040   -0.7750   -0.8800 N   0  0
   -1.3950    1.7450    1.1610 C   0  0  3  0  0  0
    2.0100   -1.9640   -0.5230 C   0  0
   -2.3740    2.0520    0.0700 C   0  0
   -1.7730    2.5110    2.4270 C   0  0
   -1.3480    0.2490    1.5410 C   0  0
    2.9790   -2.6040   -1.3410 C   0  0
    1.5820   -2.5950    0.6750 C   0  0
   -3.3710    1.1060   -0.3290 C   0  0
   -2.3260    3.3160   -0.5800 C   0  0
   -3.0370    3.3440    2.4360 C   0  0
   -1.6860    4.0230    2.4280 C   0  0
   -2.7530   -0.3420    1.6540 C   0  0
    3.5100   -3.8620   -0.9600 C   0  0
    2.1130   -3.8500    1.0580 C   0  0
   -4.2800    1.4390   -1.3650 C   0  0
   -3.4820   -0.2330    0.3090 C   0  0
   -3.2380    3.6350   -1.6100 C   0  0
    3.0770   -4.4770    0.2340 C   0  0
    4.5280   -4.5680   -1.7920 C   0  0
   -4.2150    2.6970   -2.0030 C   0  0
    3.6730   -5.7970    0.5800 C   0  0
    4.9920   -5.7130   -1.4180 N   0  0
    5.0370   -3.9700   -3.0790 C   0  0
    3.3630   -6.3970    1.5840 O   0  0
    4.5940   -6.4130   -0.1980 O   0  0
   -0.7940    0.3810   -1.0370 H   0  0
    0.0250    3.3070    0.6390 H   0  0
    0.6670    2.1760    1.7010 H   0  0
    1.2890   -0.5940   -1.8400 H   0  0
   -1.5160    2.0110    3.3620 H   0  0
   -0.8020    0.1030    2.4740 H   0  0
   -0.7960   -0.3070    0.7810 H   0  0
    3.3130   -2.1330   -2.2550 H   0  0
    0.8440   -2.1250    1.3120 H   0  0
   -1.5880    4.0500   -0.2920 H   0  0
   -3.6150    3.3750    3.3600 H   0  0
   -3.6310    3.3840    1.5220 H   0  0
   -1.3570    4.5090    3.3470 H   0  0
   -1.3720    4.5190    1.5090 H   0  0
   -3.3150    0.1830    2.4280 H   0  0
   -2.7010   -1.3850    1.9650 H   0  0
    1.7780   -4.3180    1.9730 H   0  0
   -5.0330    0.7280   -1.6740 H   0  0
   -3.0710   -0.9700   -0.3820 H   0  0
   -4.5330   -0.4950    0.4500 H   0  0
   -3.1870    4.5980   -2.0970 H   0  0
   -4.9120    2.9400   -2.7920 H   0  0
    5.8100   -4.6090   -3.5040 H   0  0
    4.2090   -3.8270   -3.7740 H   0  0
    5.4810   -2.9940   -2.8840 H   0  0
  1  2  1  0
  2  3  1  0
  2  4  1  0
  2  5  1  0
  5  6  1  0
  5  7  1  0
  5  8  1  0
  7  9  2  0
  7 10  1  0
  8 11  1  0
 10 12  1  0
 11 13  1  0
 11 14  1  0
 11 15  1  0
 12 16  2  0
 12 17  1  0
 13 18  2  0
 13 19  1  0
 14 20  1  0
 14 21  1  0
 15 22  1  0
 16 23  1  0
 17 24  2  0
 18 25  1  0
 18 26  1  0
 19 27  2  0
 23 28  2  0
 23 29  1  0
 25 30  2  0
 28 31  1  0
 29 32  2  0
 29 33  1  0
 31 34  2  0
 31 35  1  0
 20 21  1  0
 22 26  1  0
 24 28  1  0
 27 30  1  0
 32 35  1  0
  6 36  1  0
  8 37  1  0
  8 38  1  0
 10 39  1  0
 14 40  1  0
 15 41  1  0
 15 42  1  0
 16 43  1  0
 17 44  1  0
 19 45  1  0
 20 46  1  0
 20 47  1  0
 21 48  1  0
 21 49  1  0
 22 50  1  0
 22 51  1  0
 24 52  1  0
 25 53  1  0
 26 54  1  0
 26 55  1  0
 27 56  1  0
 30 57  1  0
 33 58  1  0
 33 59  1  0
 33 60  1  0
M  END
> <Name>
CHEMBL386448

> <IC50 nM>
4.68

> <Molecule_ChEMBL_ID>
CHEMBL386448

> <Smiles>
Cc1noc(=O)c2ccc(NC(=O)C(O)(CC3(C4CC4)CCCc4ccccc43)C(F)(F)F)cc12

$$$$
CHEMBL208840
  SciTegic08162514323D

 62 65  0  0  1  0            999 V2000
    1.9250   -2.2320   -2.7120 F   0  0
    1.7330   -0.9190   -3.0550 C   0  0
    2.9050   -0.3980   -3.5420 F   0  0
    0.7610   -0.8350   -4.0190 F   0  0
    1.2970   -0.1270   -1.8220 C   0  0  3  0  0  0
    2.3190   -0.2200   -0.8550 O   0  0
    0.0070   -0.6380   -1.2380 C   0  0
    1.0570    1.3520   -2.1240 C   0  0
   -1.0450   -0.4660   -1.8100 O   0  0
    0.0440   -1.3020   -0.0450 N   0  0
    1.4510    2.2670   -0.9560 C   0  0  3  0  0  0
   -0.7390   -2.3730    0.1500 C   0  0
    0.7750    1.8040    0.3100 C   0  0
    1.1270    3.7520   -1.2720 C   0  0
    2.9850    2.1670   -0.8710 C   0  0
   -1.0530   -2.7990    1.4680 C   0  0
   -1.2610   -3.0900   -0.9590 C   0  0
   -0.6540    1.7760    0.4320 C   0  0
    1.5530    1.3770    1.4290 C   0  0
   -0.2430    4.0310   -1.9080 C   0  0
    3.6440    3.4990   -0.5110 C   0  0
   -1.8800   -3.9330    1.6690 C   0  0
   -2.0880   -4.2210   -0.7590 C   0  0
   -1.2500    1.3220    1.6400 C   0  0
   -1.5570    2.2090   -0.6690 C   0  0
    0.9450    0.9260    2.6210 C   0  0
   -1.4400    3.7010   -1.0120 C   0  0
   -2.3930   -4.6360    0.5590 C   0  0
   -2.2310   -4.4150    3.0370 C   0  0
   -0.4580    0.8970    2.7260 C   0  0
   -3.2560   -5.8180    0.8350 C   0  0
   -2.9860   -5.4510    3.1870 N   0  0
   -1.7190   -3.7120    4.2690 C   0  0
   -3.7410   -6.4790   -0.0540 O   0  0
   -3.5550   -6.2300    2.0890 O   0  0
    1.9020   -0.1080    0.0140 H   0  0
    1.5750    1.6480   -3.0360 H   0  0
    0.0210    1.5230   -2.4150 H   0  0
    0.6550   -0.9890    0.6820 H   0  0
    1.8700    4.1310   -1.9750 H   0  0
    1.2480    4.3670   -0.3780 H   0  0
    3.2820    1.3880   -0.1680 H   0  0
    3.3980    1.7710   -1.7990 H   0  0
   -0.6620   -2.2600    2.3200 H   0  0
   -1.0340   -2.7830   -1.9710 H   0  0
    2.6320    1.3830    1.4070 H   0  0
   -0.3330    3.4910   -2.8510 H   0  0
   -0.2930    5.0880   -2.1720 H   0  0
    4.7230    3.3800   -0.4080 H   0  0
    3.4410    4.2480   -1.2760 H   0  0
    3.2590    3.8760    0.4360 H   0  0
   -2.4800   -4.7570   -1.6120 H   0  0
   -2.3250    1.2960    1.7420 H   0  0
   -1.3980    1.5930   -1.5530 H   0  0
   -2.5960    2.0190   -0.3930 H   0  0
    1.5550    0.6040    3.4520 H   0  0
   -2.3430    4.0020   -1.5450 H   0  0
   -1.4170    4.3100   -0.1070 H   0  0
   -0.9260    0.5510    3.6350 H   0  0
   -2.0520   -4.1690    5.2010 H   0  0
   -2.0520   -2.6740    4.2690 H   0  0
   -0.6290   -3.7120    4.2690 H   0  0
  1  2  1  0
  2  3  1  0
  2  4  1  0
  2  5  1  0
  5  6  1  0
  5  7  1  0
  5  8  1  0
  7  9  2  0
  7 10  1  0
  8 11  1  0
 10 12  1  0
 11 13  1  0
 11 14  1  0
 11 15  1  0
 12 16  2  0
 12 17  1  0
 13 18  2  0
 13 19  1  0
 14 20  1  0
 15 21  1  0
 16 22  1  0
 17 23  2  0
 18 24  1  0
 18 25  1  0
 19 26  2  0
 20 27  1  0
 22 28  2  0
 22 29  1  0
 24 30  2  0
 28 31  1  0
 29 32  2  0
 29 33  1  0
 31 34  2  0
 31 35  1  0
 23 28  1  0
 25 27  1  0
 26 30  1  0
 32 35  1  0
  6 36  1  0
  8 37  1  0
  8 38  1  0
 10 39  1  0
 14 40  1  0
 14 41  1  0
 15 42  1  0
 15 43  1  0
 16 44  1  0
 17 45  1  0
 19 46  1  0
 20 47  1  0
 20 48  1  0
 21 49  1  0
 21 50  1  0
 21 51  1  0
 23 52  1  0
 24 53  1  0
 25 54  1  0
 25 55  1  0
 26 56  1  0
 27 57  1  0
 27 58  1  0
 30 59  1  0
 33 60  1  0
 33 61  1  0
 33 62  1  0
M  END
> <Name>
CHEMBL208840

> <IC50 nM>
10

> <Molecule_ChEMBL_ID>
CHEMBL208840

> <Smiles>
CCC1(CC(O)(C(=O)Nc2ccc3c(=O)onc(C)c3c2)C(F)(F)F)CCCCc2ccccc21

$$$$
CHEMBL3358936
  SciTegic08162514323D

 61 64  0  0  1  0            999 V2000
   -2.9650    1.5370   -1.9770 F   0  0
   -3.2150    2.3070   -0.8710 C   0  0
   -3.5840    3.5660   -1.2640 F   0  0
   -4.2270    1.7420   -0.1390 F   0  0
   -1.9510    2.3910   -0.0140 C   0  0  1  0  0  0
   -1.7070    1.1150    0.5350 O   0  0
   -0.7210    2.8110   -0.8160 C   0  0
   -2.2660    3.3520    1.1330 C   0  0
    0.1370    1.6150   -1.1720 C   0  0
   -1.4080    3.0940    2.3730 C   0  0
    1.4860    1.4750   -0.7540 N   0  0
   -0.2150    0.4840   -1.9360 C   0  0
   -1.7150    1.7750    2.9840 C   0  0
    0.0880    3.2540    2.0980 C   0  0
   -1.8730    3.8950    3.5900 C   0  0
    1.9320    0.2680   -1.2660 C   0  0
    0.8910   -0.2890   -1.9630 C   0  0
   -0.6680    0.9430    3.4260 C   0  0
   -3.0490    1.3570    3.1250 C   0  0
    3.1520   -0.4320   -1.2050 C   0  0
    1.0350   -1.5470   -2.6150 C   0  0
   -0.9550   -0.3050    4.0080 C   0  0
   -3.3380    0.1090    3.7050 C   0  0
    3.3630   -1.6520   -1.8110 N   0  0
    2.3010   -2.2090   -2.5180 C   0  0
    0.0230   -1.0820    4.4220 O   0  0
   -2.2910   -0.7190    4.1450 C   0  0
    2.4790   -3.3980   -3.1170 N   0  0
    3.8220   -3.8610   -3.5410 C   0  0
    1.3380   -4.3110   -3.3910 C   0  0
    4.0370   -5.3610   -3.2440 C   0  0
    1.6970   -5.7830   -3.1020 C   0  0
    2.9360   -6.1310   -3.7070 O   0  0
   -0.7930    1.1150    0.8590 H   0  0
   -0.1250    3.5330   -0.2560 H   0  0
   -1.0140    3.3320   -1.7270 H   0  0
   -2.1680    4.3870    0.8070 H   0  0
   -3.3260    3.3180    1.3850 H   0  0
    2.0080    2.1150   -0.2030 H   0  0
   -1.1720    0.2850   -2.4000 H   0  0
    0.6720    3.2540    3.0180 H   0  0
    0.2870    4.1900    1.5760 H   0  0
    0.4530    2.4390    1.4710 H   0  0
   -1.3460    3.5700    4.4860 H   0  0
   -1.6970    4.9610    3.4390 H   0  0
   -2.9390    3.7520    3.7600 H   0  0
    0.3570    1.2640    3.3200 H   0  0
   -3.8570    1.9900    2.7870 H   0  0
    3.9710    0.0100   -0.6540 H   0  0
    0.2110   -1.9800   -3.1640 H   0  0
   -4.3630   -0.2110    3.8110 H   0  0
    0.9380   -0.7870    4.3200 H   0  0
   -2.5160   -1.6780    4.5900 H   0  0
    4.6080   -3.2810   -3.0530 H   0  0
    3.9220   -3.6820   -4.6130 H   0  0
    1.0570   -4.1970   -4.4380 H   0  0
    0.4670   -4.0270   -2.7990 H   0  0
    4.1600   -5.5390   -2.1740 H   0  0
    4.9380   -5.7250   -3.7420 H   0  0
    1.7700   -5.9710   -2.0290 H   0  0
    0.9280   -6.4470   -3.4980 H   0  0
  1  2  1  0
  2  3  1  0
  2  4  1  0
  2  5  1  0
  5  6  1  0
  5  7  1  0
  5  8  1  0
  7  9  1  0
  8 10  1  0
  9 11  1  0
  9 12  2  0
 10 13  1  0
 10 14  1  0
 10 15  1  0
 11 16  1  0
 12 17  1  0
 13 18  2  0
 13 19  1  0
 16 20  1  0
 17 21  1  0
 18 22  1  0
 19 23  2  0
 20 24  2  0
 21 25  2  0
 22 26  1  0
 22 27  2  0
 25 28  1  0
 28 29  1  0
 28 30  1  0
 29 31  1  0
 30 32  1  0
 31 33  1  0
 16 17  2  0
 23 27  1  0
 24 25  1  0
 32 33  1  0
  6 34  1  0
  7 35  1  0
  7 36  1  0
  8 37  1  0
  8 38  1  0
 11 39  1  0
 12 40  1  0
 14 41  1  0
 14 42  1  0
 14 43  1  0
 15 44  1  0
 15 45  1  0
 15 46  1  0
 18 47  1  0
 19 48  1  0
 20 49  1  0
 21 50  1  0
 23 51  1  0
 26 52  1  0
 27 53  1  0
 29 54  1  0
 29 55  1  0
 30 56  1  0
 30 57  1  0
 31 58  1  0
 31 59  1  0
 32 60  1  0
 32 61  1  0
M  END
> <Name>
CHEMBL3358936

> <IC50 nM>
24

> <Molecule_ChEMBL_ID>
CHEMBL3358936

> <Smiles>
CC(C)(CC(O)(Cc1cc2cc(N3CCOCC3)ncc2[nH]1)C(F)(F)F)c1cccc(O)c1

$$$$
CHEMBL3358925
  SciTegic08162514323D

 60 63  0  0  1  0            999 V2000
   -3.0840   -0.7480    3.8670 F   0  0
   -3.7130   -0.2420    2.8110 C   0  0
   -3.3420   -0.6390    1.5140 C   0  0
   -4.7500    0.6890    2.9880 C   0  0
   -4.0060   -0.1050    0.3950 C   0  0
   -5.4160    1.2230    1.8730 C   0  0
   -5.0470    0.8280    0.5740 C   0  0
   -3.6000   -0.5370   -0.9710 C   0  0
   -5.7620    1.4040   -0.5980 C   0  0
   -3.0180    0.8240   -1.3520 C   0  0
   -4.8110   -0.9200   -1.8240 C   0  0
   -2.5410   -1.6390   -0.9220 C   0  0
   -1.4940    0.8670   -1.2400 C   0  0  1  0  0  0
   -0.9690   -0.2380   -1.9400 O   0  0
   -1.0410    2.1430   -1.9510 C   0  0
   -1.0060    0.7930    0.2070 C   0  0
   -1.7190    2.2720   -3.1350 F   0  0
    0.3070    2.0720   -2.2010 F   0  0
   -1.3010    3.2290   -1.1540 F   0  0
    0.5020    0.6860    0.2730 C   0  0
    1.3590    1.8150    0.3480 N   0  0
    1.2970   -0.4780    0.2710 C   0  0
    2.6520    1.3240    0.3930 C   0  0
    2.5720   -0.0450    0.3440 C   0  0
    3.9260    1.9220    0.4750 C   0  0
    3.7480   -0.8480    0.3710 C   0  0
    5.1020    1.2010    0.5060 N   0  0
    5.0160   -0.1870    0.4550 C   0  0
    6.2400   -0.9770    0.4860 C   0  0
    7.4900   -0.3340    0.5510 C   0  0
    6.1720   -2.3830    0.4510 C   0  0
    8.6720   -1.0980    0.5820 C   0  0
    7.3560   -3.1430    0.4820 C   0  0
    8.6040   -2.5000    0.5470 C   0  0
   -2.5450   -1.3550    1.3790 H   0  0
   -5.0390    0.9960    3.9820 H   0  0
   -6.2130    1.9380    2.0180 H   0  0
   -6.6780    0.8420   -0.7750 H   0  0
   -5.9450    2.4650   -0.4260 H   0  0
   -5.1350    1.3150   -1.4840 H   0  0
   -3.4710    1.6170   -0.7540 H   0  0
   -3.3400    1.1150   -2.3520 H   0  0
   -4.7440   -1.9470   -2.1860 H   0  0
   -4.8930   -0.2680   -2.6910 H   0  0
   -5.7310   -0.8280   -1.2480 H   0  0
   -2.9160   -2.5430   -0.4450 H   0  0
   -1.6660   -1.3070   -0.3610 H   0  0
   -2.2110   -1.9020   -1.9260 H   0  0
   -0.0160   -0.2620   -1.7640 H   0  0
   -1.4530   -0.0570    0.7230 H   0  0
   -1.3320    1.6680    0.7700 H   0  0
    1.0860    2.7700    0.3650 H   0  0
    0.9510   -1.5040    0.2210 H   0  0
    3.9880    2.9980    0.5140 H   0  0
    3.6800   -1.9260    0.3300 H   0  0
    7.5610    0.7440    0.5780 H   0  0
    5.2210   -2.8910    0.4000 H   0  0
    9.6310   -0.6030    0.6330 H   0  0
    7.3030   -4.2210    0.4550 H   0  0
    9.5100   -3.0860    0.5700 H   0  0
  1  2  1  0
  2  3  2  0
  2  4  1  0
  3  5  1  0
  4  6  2  0
  5  7  2  0
  5  8  1  0
  7  9  1  0
  8 10  1  0
  8 11  1  0
  8 12  1  0
 10 13  1  0
 13 14  1  0
 13 15  1  0
 13 16  1  0
 15 17  1  0
 15 18  1  0
 15 19  1  0
 16 20  1  0
 20 21  1  0
 20 22  2  0
 21 23  1  0
 22 24  1  0
 23 25  1  0
 24 26  1  0
 25 27  2  0
 26 28  2  0
 28 29  1  0
 29 30  2  0
 29 31  1  0
 30 32  1  0
 31 33  2  0
 32 34  2  0
  6  7  1  0
 23 24  2  0
 27 28  1  0
 33 34  1  0
  3 35  1  0
  4 36  1  0
  6 37  1  0
  9 38  1  0
  9 39  1  0
  9 40  1  0
 10 41  1  0
 10 42  1  0
 11 43  1  0
 11 44  1  0
 11 45  1  0
 12 46  1  0
 12 47  1  0
 12 48  1  0
 14 49  1  0
 16 50  1  0
 16 51  1  0
 21 52  1  0
 22 53  1  0
 25 54  1  0
 26 55  1  0
 30 56  1  0
 31 57  1  0
 32 58  1  0
 33 59  1  0
 34 60  1  0
M  END
> <Name>
CHEMBL3358925

> <IC50 nM>
2

> <Molecule_ChEMBL_ID>
CHEMBL3358925

> <Smiles>
Cc1ccc(F)cc1C(C)(C)CC(O)(Cc1cc2cc(-c3ccccc3)ncc2[nH]1)C(F)(F)F

$$$$
CHEMBL3358938
  SciTegic08162514323D

 65 68  0  0  1  0            999 V2000
    0.0490    5.4340   -1.0020 S   0  0
    0.1070    4.8630   -2.3360 O   0  0
   -0.1210    6.8750   -1.0020 O   0  0
   -1.3850    4.7810   -0.2620 N   0  0
    1.5250    5.0630   -0.1870 C   0  0
    1.8030    3.7420    0.2170 C   0  0
    2.4530    6.0880    0.0680 C   0  0
    3.0100    3.4530    0.8790 C   0  0
    0.8280    2.6520   -0.0510 C   0  0
    3.6580    5.7950    0.7310 C   0  0
    3.9360    4.4790    1.1370 C   0  0
    1.4220    1.2770    0.2580 C   0  0
    0.2540    2.7440   -1.4650 C   0  0
   -0.1600    3.1210    1.0180 C   0  0
    2.4410    0.8280   -0.7890 C   0  0  1  0  0  0
    3.0800    1.9750   -1.3050 O   0  0
    3.4840   -0.0100   -0.0510 C   0  0
    1.7970    0.0740   -1.9550 C   0  0
    2.8930   -0.6440    1.0120 F   0  0
    4.4860    0.8070    0.4060 F   0  0
    4.0100   -0.9430   -0.9040 F   0  0
    0.6950   -0.8460   -1.4710 C   0  0
   -0.6470   -0.7500   -1.9180 N   0  0
    0.7850   -1.9040   -0.5450 C   0  0
   -1.3520   -1.7460   -1.2640 C   0  0
   -0.4630   -2.4100   -0.4550 C   0  0
   -2.6950   -2.1680   -1.2750 C   0  0
   -0.8870   -3.5000    0.3590 C   0  0
   -3.1720   -3.2150   -0.5160 N   0  0
   -2.2640   -3.8810    0.3030 C   0  0
   -2.7030   -4.9040    1.0550 N   0  0
   -1.7990   -6.0020    1.4770 C   0  0
   -4.1150   -4.9920    1.5020 C   0  0
   -2.4810   -7.3830    1.3420 C   0  0
   -4.6640   -6.4300    1.3650 C   0  0
   -3.7680   -7.3690    1.9450 O   0  0
   -1.5650    5.2680    0.6270 H   0  0
   -2.1910    4.9360   -0.8830 H   0  0
    2.2400    7.1000   -0.2420 H   0  0
    3.2300    2.4430    1.1930 H   0  0
    4.3690    6.5840    0.9280 H   0  0
    4.8630    4.2540    1.6450 H   0  0
    0.6330    0.5330    0.3710 H   0  0
    1.8610    1.2620    1.2540 H   0  0
   -0.6740    3.3150   -1.4900 H   0  0
    0.0470    1.7520   -1.8610 H   0  0
    0.9630    3.2330   -2.1370 H   0  0
   -0.0410    4.1880    1.2130 H   0  0
   -1.1880    2.9280    0.7050 H   0  0
    0.0060    2.5900    1.9570 H   0  0
    2.6020    2.2310   -2.1090 H   0  0
    2.5430   -0.5060   -2.4960 H   0  0
    1.3930    0.7720   -2.6880 H   0  0
   -1.0120   -0.0980   -2.5720 H   0  0
    1.6700   -2.2360   -0.0200 H   0  0
   -3.3930   -1.6440   -1.9140 H   0  0
   -0.1820   -4.0180    0.9960 H   0  0
   -0.8730   -5.9920    0.8980 H   0  0
   -1.5180   -5.8300    2.5180 H   0  0
   -4.7480   -4.3030    0.9380 H   0  0
   -4.1620   -4.6780    2.5450 H   0  0
   -1.8830   -8.1560    1.8240 H   0  0
   -2.5900   -7.6640    0.2930 H   0  0
   -5.6270   -6.5230    1.8670 H   0  0
   -4.8170   -6.6930    0.3180 H   0  0
  1  2  2  0
  1  3  2  0
  1  4  1  0
  1  5  1  0
  5  6  2  0
  5  7  1  0
  6  8  1  0
  6  9  1  0
  7 10  2  0
  8 11  2  0
  9 12  1  0
  9 13  1  0
  9 14  1  0
 12 15  1  0
 15 16  1  0
 15 17  1  0
 15 18  1  0
 17 19  1  0
 17 20  1  0
 17 21  1  0
 18 22  1  0
 22 23  1  0
 22 24  2  0
 23 25  1  0
 24 26  1  0
 25 27  1  0
 26 28  1  0
 27 29  2  0
 28 30  2  0
 30 31  1  0
 31 32  1  0
 31 33  1  0
 32 34  1  0
 33 35  1  0
 34 36  1  0
 10 11  1  0
 25 26  2  0
 29 30  1  0
 35 36  1  0
  4 37  1  0
  4 38  1  0
  7 39  1  0
  8 40  1  0
 10 41  1  0
 11 42  1  0
 12 43  1  0
 12 44  1  0
 13 45  1  0
 13 46  1  0
 13 47  1  0
 14 48  1  0
 14 49  1  0
 14 50  1  0
 16 51  1  0
 18 52  1  0
 18 53  1  0
 23 54  1  0
 24 55  1  0
 27 56  1  0
 28 57  1  0
 32 58  1  0
 32 59  1  0
 33 60  1  0
 33 61  1  0
 34 62  1  0
 34 63  1  0
 35 64  1  0
 35 65  1  0
M  END
> <Name>
CHEMBL3358938

> <IC50 nM>
7

> <Molecule_ChEMBL_ID>
CHEMBL3358938

> <Smiles>
CC(C)(CC(O)(Cc1cc2cc(N3CCOCC3)ncc2[nH]1)C(F)(F)F)c1ccccc1S(N)(=O)=O

$$$$
CHEMBL3093445
  SciTegic08162514323D

 52 54  0  0  1  0            999 V2000
    1.3690   -0.4280   -0.8200 S   0  0
    0.0940   -0.1840   -1.4710 O   0  0
    2.3730    0.5740   -1.1350 O   0  0
    1.0720   -0.2910    0.8890 N   0  0
    1.9590   -1.9690   -1.3400 C   0  0
    0.5640    0.9750    1.3930 C   0  0  2  0  0  0
    2.8750   -2.0470   -2.4060 C   0  0
    1.5230   -3.1410   -0.6970 C   0  0
    0.9750    1.1720    2.8520 C   0  0
   -0.9470    1.0650    1.1860 C   0  0
    3.3540   -3.3010   -2.8280 C   0  0
    3.3400   -0.8120   -3.0920 C   0  0
    2.0040   -4.3930   -1.1210 C   0  0
    0.5570   -3.0640    0.4320 C   0  0
    2.3400    1.2600    2.9360 F   0  0
    0.5390    0.1060    3.5980 F   0  0
    0.4100    2.3240    3.3320 F   0  0
   -1.4040    2.5080    1.0960 C   0  0
    2.9180   -4.4730   -2.1860 C   0  0
   -2.6720    2.9900    1.0590 C   0  0
   -0.5620    3.6330    1.0290 C   0  0
    3.4240   -5.7970   -2.6330 C   0  0
   -3.8830    2.2440    1.1000 C   0  0
   -2.6930    4.3610    0.9750 C   0  0
   -1.3770    4.7890    0.9550 N   0  0
   -5.1150    2.9510    1.0510 C   0  0
   -3.8970    0.7740    1.1900 C   0  0
   -3.9060    5.0880    0.9260 C   0  0
   -5.1270    4.3670    0.9630 C   0  0
    1.9320   -0.5230    1.4060 H   0  0
    1.0840    1.6820    0.7480 H   0  0
   -1.4790    0.5660    1.9980 H   0  0
   -1.2460    0.5310    0.2830 H   0  0
    4.0550   -3.3610   -3.6470 H   0  0
    2.5430   -0.1090   -3.3380 H   0  0
    3.8480   -1.0780   -4.0180 H   0  0
    4.0570   -0.2910   -2.4570 H   0  0
    1.6700   -5.2950   -0.6270 H   0  0
    0.0630   -4.0100    0.6620 H   0  0
   -0.2170   -2.3340    0.1970 H   0  0
    1.0720   -2.7280    1.3300 H   0  0
    0.5200    3.6560    1.0330 H   0  0
    3.0270   -6.5760   -1.9820 H   0  0
    3.1660   -5.9510   -3.6800 H   0  0
    4.5120   -5.8160   -2.5510 H   0  0
   -1.0570    5.7290    0.9000 H   0  0
   -6.0510    2.4120    1.0800 H   0  0
   -4.8870    0.3280    1.1020 H   0  0
   -3.4730    0.4650    2.1450 H   0  0
   -3.2710    0.3560    0.3980 H   0  0
   -3.9080    6.1660    0.8570 H   0  0
   -6.0660    4.8990    0.9280 H   0  0
  1  2  2  0
  1  3  2  0
  1  4  1  0
  1  5  1  0
  6  4  1  0
  5  7  2  0
  5  8  1  0
  6  9  1  0
  6 10  1  0
  7 11  1  0
  7 12  1  0
  8 13  2  0
  8 14  1  0
  9 15  1  0
  9 16  1  0
  9 17  1  0
 10 18  1  0
 11 19  2  0
 18 20  1  0
 18 21  2  0
 19 22  1  0
 20 23  2  0
 20 24  1  0
 21 25  1  0
 23 26  1  0
 23 27  1  0
 24 28  2  0
 26 29  2  0
 13 19  1  0
 24 25  1  0
 28 29  1  0
  4 30  1  0
  6 31  1  0
 10 32  1  0
 10 33  1  0
 11 34  1  0
 12 35  1  0
 12 36  1  0
 12 37  1  0
 13 38  1  0
 14 39  1  0
 14 40  1  0
 14 41  1  0
 21 42  1  0
 22 43  1  0
 22 44  1  0
 22 45  1  0
 25 46  1  0
 26 47  1  0
 27 48  1  0
 27 49  1  0
 27 50  1  0
 28 51  1  0
 29 52  1  0
M  END
> <Name>
CHEMBL3093445

> <IC50 nM>
2000

> <Molecule_ChEMBL_ID>
CHEMBL3093445

> <Smiles>
Cc1cc(C)c(S(=O)(=O)NC(Cc2c[nH]c3cccc(C)c23)C(F)(F)F)c(C)c1

$$$$
CHEMBL3093454
  SciTegic08162514323D

 49 51  0  0  1  0            999 V2000
    0.4100    0.2440    0.6950 S   0  0
   -0.7500   -0.1800   -0.0700 O   0  0
    0.9160   -0.7850    1.5860 O   0  0
    1.6720    0.5310   -0.4670 N   0  0
   -0.0370    1.6150    1.6470 C   0  0
    2.0940   -0.5780   -1.3070 C   0  0  2  0  0  0
   -0.4240    1.4450    2.9880 C   0  0
   -0.0160    2.9020    1.0760 C   0  0
    3.4880   -0.3180   -1.8770 C   0  0
    1.0550   -0.8540   -2.3920 C   0  0
   -0.7870    2.5630    3.7620 C   0  0
   -0.4490    0.0880    3.5960 C   0  0
   -0.3810    4.0180    1.8520 C   0  0
    0.3910    3.0920   -0.3420 C   0  0
    4.3850   -0.1800   -0.8480 F   0  0
    3.4690    0.8320   -2.6230 F   0  0
    3.8620   -1.3710   -2.6700 F   0  0
    0.5610   -2.2380   -2.3100 N   0  0
   -0.7660    3.8480    3.1940 C   0  0
   -0.7660   -2.6470   -2.2930 C   0  0
    1.3560   -3.4080   -2.2360 C   0  0
   -1.1520    5.0270    4.0120 C   0  0
   -0.7560   -4.0160   -2.2090 C   0  0
   -1.9760   -1.9180   -2.3440 C   0  0
    0.4960   -4.5220   -2.1720 C   0  0
   -1.9590   -4.7620   -2.1680 C   0  0
   -3.1990   -2.6370   -2.3050 C   0  0
   -3.1910   -4.0550   -2.2170 C   0  0
    2.5020    0.9060    0.0140 H   0  0
    2.1190   -1.3930   -0.5820 H   0  0
    1.5220   -0.6910   -3.3630 H   0  0
    0.2150   -0.1640   -2.3070 H   0  0
   -1.0840    2.4320    4.7910 H   0  0
   -0.9370   -0.6700    2.9830 H   0  0
   -0.9690    0.1270    4.5530 H   0  0
    0.5720   -0.2440    3.7850 H   0  0
   -0.3630    5.0060    1.4160 H   0  0
    0.0840    4.0430   -0.7730 H   0  0
   -0.0370    2.2950   -0.9510 H   0  0
    1.4770    3.0230   -0.4200 H   0  0
    2.4400   -3.4060   -2.2300 H   0  0
   -1.0580    5.9340    3.4100 H   0  0
   -2.1580    4.8850    4.4040 H   0  0
   -0.4730    5.1210    4.8600 H   0  0
   -1.9730   -0.8400   -2.4100 H   0  0
    0.7890   -5.5610   -2.1070 H   0  0
   -1.9530   -5.8400   -2.1030 H   0  0
   -4.1370   -2.1040   -2.3420 H   0  0
   -4.1250   -4.5980   -2.1870 H   0  0
  1  2  2  0
  1  3  2  0
  1  4  1  0
  1  5  1  0
  6  4  1  0
  5  7  2  0
  5  8  1  0
  6  9  1  0
  6 10  1  0
  7 11  1  0
  7 12  1  0
  8 13  2  0
  8 14  1  0
  9 15  1  0
  9 16  1  0
  9 17  1  0
 10 18  1  0
 11 19  2  0
 18 20  1  0
 18 21  1  0
 19 22  1  0
 20 23  1  0
 20 24  2  0
 21 25  2  0
 23 26  2  0
 24 27  1  0
 26 28  1  0
 13 19  1  0
 23 25  1  0
 27 28  2  0
  4 29  1  0
  6 30  1  0
 10 31  1  0
 10 32  1  0
 11 33  1  0
 12 34  1  0
 12 35  1  0
 12 36  1  0
 13 37  1  0
 14 38  1  0
 14 39  1  0
 14 40  1  0
 21 41  1  0
 22 42  1  0
 22 43  1  0
 22 44  1  0
 24 45  1  0
 25 46  1  0
 26 47  1  0
 27 48  1  0
 28 49  1  0
M  END
> <Name>
CHEMBL3093454

> <IC50 nM>
25

> <Molecule_ChEMBL_ID>
CHEMBL3093454

> <Smiles>
Cc1cc(C)c(S(=O)(=O)NC(Cn2ccc3ccccc32)C(F)(F)F)c(C)c1

$$$$
CHEMBL365818
  SciTegic08162514323D

 53 57  0  0  1  0            999 V2000
   -4.9340    6.7830   -0.2790 F   0  0
   -4.5370    5.5140   -0.2440 C   0  0
   -5.1170    4.6210    0.6740 C   0  0
   -3.5350    5.0650   -1.1210 C   0  0
   -4.6990    3.2790    0.7130 C   0  0
   -3.1150    3.7250   -1.0840 C   0  0
   -3.6970    2.8280   -0.1680 C   0  0
   -3.2930    1.5310   -0.1310 N   0  0
   -4.1290    0.4610   -0.0720 N   0  0
   -2.0020    1.1020   -0.1500 C   0  0
   -3.4730   -0.7290   -0.0370 C   0  0
   -2.1560   -0.2710   -0.0740 C   0  0
   -0.7110    1.8030   -0.2300 C   0  0
   -0.9080   -1.1390   -0.0120 C   0  0
    0.4180    1.0820   -0.4100 C   0  0
    0.3810   -0.4490   -0.5800 C   0  0  1  0  0  0
    1.7520    1.8010   -0.4880 C   0  0
    1.6190   -1.1230    0.0740 C   0  0  1  0  0  0
    0.4220   -0.6740   -2.1000 C   0  0
    2.9000    1.0430    0.1840 C   0  0
    1.7090   -2.6190   -0.2580 C   0  0  1  0  0  0
    2.9390   -0.4180   -0.2660 C   0  0
    2.3670   -2.7580   -1.4960 O   0  0
    2.4550   -3.3670    0.7870 C   0  0
    3.8550   -3.4770    0.7250 C   0  0
    1.7710   -3.9790    1.8540 C   0  0
    4.5350   -4.1930    1.7290 C   0  0
    2.5040   -4.6820    2.8300 C   0  0
    3.8630   -4.7830    2.7620 N   0  0
   -5.8870    4.9630    1.3500 H   0  0
   -3.0860    5.7480   -1.8280 H   0  0
   -5.1600    2.6070    1.4240 H   0  0
   -2.3440    3.3970   -1.7690 H   0  0
   -3.8950   -1.7230    0.0120 H   0  0
   -0.6740    2.8810   -0.1540 H   0  0
   -1.0940   -2.0880   -0.5180 H   0  0
   -0.7660   -1.3850    1.0410 H   0  0
    1.9940    1.9510   -1.5410 H   0  0
    1.6780    2.7950   -0.0510 H   0  0
    1.5020   -1.0510    1.1580 H   0  0
   -0.3710   -0.1110   -2.5940 H   0  0
    1.3850   -0.3670   -2.5100 H   0  0
    0.2790   -1.7290   -2.3380 H   0  0
    2.7850    1.0880    1.2680 H   0  0
    3.8500    1.5310   -0.0470 H   0  0
    0.7050   -3.0350   -0.3570 H   0  0
    3.1310   -0.4710   -1.3380 H   0  0
    3.7720   -0.9240    0.2250 H   0  0
    2.3160   -3.6930   -1.7420 H   0  0
    4.4080   -3.0200   -0.0820 H   0  0
    0.6950   -3.9120    1.9300 H   0  0
    5.6110   -4.2770    1.6820 H   0  0
    1.9800   -5.1520    3.6490 H   0  0
  1  2  1  0
  2  3  2  0
  2  4  1  0
  3  5  1  0
  4  6  2  0
  5  7  2  0
  7  8  1  0
  8  9  1  0
  8 10  1  0
  9 11  2  0
 10 12  2  0
 10 13  1  0
 12 14  1  0
 13 15  2  0
 14 16  1  0
 15 17  1  0
 16 18  1  0
 16 19  1  0
 17 20  1  0
 18 21  1  0
 18 22  1  0
 21 23  1  0
 21 24  1  0
 24 25  2  0
 24 26  1  0
 25 27  1  0
 26 28  2  0
 27 29  2  0
  6  7  1  0
 11 12  1  0
 15 16  1  0
 20 22  1  0
 28 29  1  0
  3 30  1  0
  4 31  1  0
  5 32  1  0
  6 33  1  0
 11 34  1  0
 13 35  1  0
 14 36  1  0
 14 37  1  0
 17 38  1  0
 17 39  1  0
 18 40  1  0
 19 41  1  0
 19 42  1  0
 19 43  1  0
 20 44  1  0
 20 45  1  0
 21 46  1  0
 22 47  1  0
 22 48  1  0
 23 49  1  0
 25 50  1  0
 26 51  1  0
 27 52  1  0
 28 53  1  0
M  END
> <Name>
CHEMBL365818

> <IC50 nM>
23.2

> <Molecule_ChEMBL_ID>
CHEMBL365818

> <Smiles>
C[C@]12Cc3cnn(-c4ccc(F)cc4)c3C=C1CCC[C@@H]2[C@@H](O)c1ccncc1

$$$$
CHEMBL433586
  SciTegic08162514323D

 54 57  0  0  1  0            999 V2000
   -1.3570    1.3220   -0.8670 F   0  0
   -1.1620    0.6270    0.3120 C   0  0  2  0  0  0
   -2.5860    0.3980    0.9200 C   0  0  2  0  0  0
   -0.1880    1.5350    1.1170 C   0  0  1  0  0  0
   -0.4960   -0.7460   -0.0140 C   0  0  3  0  0  0
   -3.4570   -0.2520   -0.1600 C   0  0
   -3.2230    1.6680    1.4800 C   0  0
   -2.5310   -0.5800    2.1020 C   0  0
   -0.0220    1.0510    2.4380 O   0  0
    1.1990    1.6700    0.4340 C   0  0
    0.7990   -0.4840   -0.8030 C   0  0  1  0  0  0
   -1.4530   -1.7710   -0.6720 C   0  0
   -4.7740    0.0160   -0.2700 C   0  0
   -2.8010   -1.2010   -1.1430 C   0  0
   -4.5330    1.9410    1.3340 C   0  0
    1.8120    0.3070    0.0470 C   0  0  1  0  0  0
    1.6230   -1.6860   -1.2640 C   0  0
   -5.4060    1.0530    0.5550 C   0  0
    3.0450    0.3050   -0.8930 C   0  0  1  0  0  0
    2.2070   -0.4770    1.3110 C   0  0
    3.0700   -1.1700   -1.3650 C   0  0  2  0  0  0
   -6.6080    1.1820    0.5800 O   0  0
    2.8260    1.1700   -1.9960 O   0  0
    4.3320    0.7500   -0.2400 C   0  0
    3.6640   -1.4100   -2.7560 C   0  0
    5.3400    0.0920   -0.3420 O   0  0
    4.2580    1.8930    0.4370 O   0  0
   -0.6020    2.5390    1.2210 H   0  0
   -0.2050   -1.2050    0.9320 H   0  0
   -2.6190    2.3810    2.0200 H   0  0
   -3.5270   -0.8520    2.4510 H   0  0
   -1.9920   -0.1410    2.9430 H   0  0
   -2.0160   -1.4960    1.8200 H   0  0
   -0.5660    1.6060    3.0160 H   0  0
    1.0680    2.2770   -0.4630 H   0  0
    1.8910    2.2310    1.0660 H   0  0
    0.5410    0.0760   -1.6910 H   0  0
   -1.6660   -2.5550    0.0570 H   0  0
   -0.9710   -2.2830   -1.5040 H   0  0
   -5.3770   -0.5230   -0.9840 H   0  0
   -2.6450   -0.6660   -2.0820 H   0  0
   -3.4770   -2.0250   -1.3750 H   0  0
   -4.9470    2.8260    1.7910 H   0  0
    1.5620   -2.4860   -0.5390 H   0  0
    1.2500   -2.0760   -2.2010 H   0  0
    1.3420   -0.7130    1.9300 H   0  0
    2.9040    0.0980    1.9200 H   0  0
    2.6930   -1.4160    1.0470 H   0  0
    3.6600   -1.7480   -0.6680 H   0  0
    3.6170    1.1250   -2.5570 H   0  0
    3.7250   -2.4790   -2.9690 H   0  0
    3.0590   -0.9280   -3.5220 H   0  0
    4.6720   -1.0020   -2.8180 H   0  0
    5.0470    2.2320    0.8790 H   0  0
  2  1  1  0
  2  3  1  0
  2  4  1  0
  2  5  1  0
  3  6  1  0
  3  7  1  0
  3  8  1  0
  4  9  1  0
  4 10  1  0
 11  5  1  0
  5 12  1  0
  6 13  2  0
  6 14  1  0
  7 15  2  0
 10 16  1  0
 11 17  1  0
 13 18  1  0
 16 19  1  0
 16 20  1  0
 17 21  1  0
 18 22  2  0
 19 23  1  0
 19 24  1  0
 21 25  1  0
 24 26  2  0
 24 27  1  0
 11 16  1  0
 12 14  1  0
 15 18  1  0
 19 21  1  0
  4 28  1  0
  5 29  1  0
  7 30  1  0
  8 31  1  0
  8 32  1  0
  8 33  1  0
  9 34  1  0
 10 35  1  0
 10 36  1  0
 11 37  1  0
 12 38  1  0
 12 39  1  0
 13 40  1  0
 14 41  1  0
 14 42  1  0
 15 43  1  0
 17 44  1  0
 17 45  1  0
 20 46  1  0
 20 47  1  0
 20 48  1  0
 21 49  1  0
 23 50  1  0
 25 51  1  0
 25 52  1  0
 25 53  1  0
 27 54  1  0
M  END
> <Name>
CHEMBL433586

> <IC50 nM>
5

> <Molecule_ChEMBL_ID>
CHEMBL433586

> <Smiles>
C[C@@H]1C[C@H]2C3CCC4=CC(=O)C=C[C@]4(C)[C@@]3(F)[C@@H](O)C[C@]2(C)[C@@]1(O)C(=O)O

$$$$
CHEMBL3937406
  SciTegic08162514323D

 65 69  0  0  1  0            999 V2000
   -5.3180    1.5630   -0.7810 O   0  0
   -4.5800    1.0740    0.0410 C   0  0
   -5.0740    0.6190    1.2290 N   0  0
   -3.1150    0.8710   -0.0330 C   0  0
   -6.4180    0.7170    1.4960 C   0  0
   -2.5310    0.3790   -1.2210 C   0  0
   -2.3090    1.1700    1.0820 C   0  0
   -6.8930    1.0960    2.7750 C   0  0
   -7.3480    0.4340    0.4750 C   0  0
   -1.1310    0.1760   -1.3030 C   0  0
   -0.9120    0.9730    1.0120 C   0  0
   -8.2310    1.1900    3.0290 N   0  0
   -5.9530    1.4060    3.8890 C   0  0
   -8.7190    0.5350    0.7560 C   0  0
   -0.3010    0.4650   -0.1700 C   0  0
   -0.5660   -0.3420   -2.5780 C   0  0
   -9.1350    0.9160    2.0450 C   0  0
    1.1840    0.2540   -0.2210 C   0  0  1  0  0  0
    0.9570   -0.2010   -2.6970 C   0  0
    1.8500   -0.1990    1.1150 C   0  0  1  0  0  0
    1.6190   -0.6640   -1.3960 C   0  0  1  0  0  0
    1.2830   -1.4160    1.5720 O   0  0
    3.3850   -0.3520    0.9840 C   0  0
    3.1540   -0.6410   -1.4860 C   0  0  1  0  0  0
    3.7990   -1.2270   -0.2170 C   0  0  1  0  0  0
    3.8030   -1.4710   -2.5940 C   0  0
    5.2930   -1.2480   -0.6390 C   0  0  2  0  0  0
    3.3300   -2.6820   -0.0140 C   0  0
    5.2110   -1.8030   -2.0800 C   0  0
    6.0570   -2.1090    0.1860 O   0  0
    5.9280    0.0780   -0.6110 C   0  0
    6.4530    1.1470   -0.5860 C   0  0
    7.1040    2.4530   -0.5450 C   0  0
   -4.4590    0.2170    1.9060 H   0  0
   -3.1560    0.1560   -2.0760 H   0  0
   -2.7460    1.5490    1.9940 H   0  0
   -7.0270    0.1410   -0.5160 H   0  0
   -0.3240    1.2230    1.8810 H   0  0
   -6.4400    1.7400    4.8050 H   0  0
   -5.2620    2.1880    3.5740 H   0  0
   -5.3670    0.5200    4.1270 H   0  0
   -9.4490    0.3220   -0.0120 H   0  0
   -0.8320   -1.3980   -2.6540 H   0  0
   -1.0390    0.1560   -3.4280 H   0  0
  -10.1900    0.9940    2.2620 H   0  0
    1.5920    1.2420   -0.4340 H   0  0
    1.3110   -0.7910   -3.5430 H   0  0
    1.2250    0.8340   -2.9060 H   0  0
    1.6740    0.5310    1.9020 H   0  0
    1.2890   -1.6870   -1.2070 H   0  0
    0.5310   -1.1840    2.1390 H   0  0
    3.8160   -0.7440    1.9060 H   0  0
    3.7990    0.6520    0.8710 H   0  0
    3.4630    0.3890   -1.6190 H   0  0
    3.8260   -0.9370   -3.5310 H   0  0
    3.2420   -2.3830   -2.7580 H   0  0
    3.6950   -3.3400   -0.8030 H   0  0
    2.2420   -2.7380   -0.0100 H   0  0
    3.6880   -3.0720    0.9390 H   0  0
    5.9750   -1.4020   -2.7300 H   0  0
    5.3380   -2.8770   -2.0980 H   0  0
    5.9020   -1.8380    1.1040 H   0  0
    7.2400    2.7750    0.4880 H   0  0
    6.4920    3.1930   -1.0620 H   0  0
    8.0780    2.4060   -1.0270 H   0  0
  1  2  2  0
  2  3  1  0
  2  4  1  0
  3  5  1  0
  4  6  2  0
  4  7  1  0
  5  8  2  0
  5  9  1  0
  6 10  1  0
  7 11  2  0
  8 12  1  0
  8 13  1  0
  9 14  2  0
 10 15  2  0
 10 16  1  0
 12 17  2  0
 18 15  1  0
 16 19  1  0
 18 20  1  0
 18 21  1  0
 20 22  1  0
 20 23  1  0
 21 24  1  0
 23 25  1  0
 24 26  1  0
 25 27  1  0
 25 28  1  0
 26 29  1  0
 27 30  1  0
 27 31  1  0
 31 32  3  0
 32 33  1  0
 11 15  1  0
 14 17  1  0
 21 19  1  0
 24 25  1  0
 27 29  1  0
  3 34  1  0
  6 35  1  0
  7 36  1  0
  9 37  1  0
 11 38  1  0
 13 39  1  0
 13 40  1  0
 13 41  1  0
 14 42  1  0
 16 43  1  0
 16 44  1  0
 17 45  1  0
 18 46  1  0
 19 47  1  0
 19 48  1  0
 20 49  1  0
 21 50  1  0
 22 51  1  0
 23 52  1  0
 23 53  1  0
 24 54  1  0
 26 55  1  0
 26 56  1  0
 28 57  1  0
 28 58  1  0
 28 59  1  0
 29 60  1  0
 29 61  1  0
 30 62  1  0
 33 63  1  0
 33 64  1  0
 33 65  1  0
M  END
> <Name>
CHEMBL3937406

> <IC50 nM>
626

> <Molecule_ChEMBL_ID>
CHEMBL3937406

> <Smiles>
CC#C[C@]1(O)CC[C@H]2[C@@H]3CCc4cc(C(=O)Nc5cccnc5C)ccc4[C@H]3[C@@H](O)C[C@@]21C

$$$$
CHEMBL3967119
  SciTegic08162514323D

 62 66  0  0  1  0            999 V2000
   -5.5980    1.5960   -0.5980 O   0  0
   -4.8540    1.1370    0.2360 C   0  0
   -5.3440    0.7230    1.4430 N   0  0
   -3.3910    0.9340    0.1620 C   0  0
   -6.6820    0.8260    1.7110 C   0  0
   -2.8070    0.4430   -1.0250 C   0  0
   -2.5820    1.2320    1.2790 C   0  0
   -7.1270    1.2380    2.9860 C   0  0
   -7.6330    0.5230    0.7170 C   0  0
   -1.4040    0.2380   -1.1060 C   0  0
   -1.1880    1.0370    1.2070 C   0  0
   -8.4550    1.3480    3.2750 N   0  0
   -8.9980    0.6410    1.0270 C   0  0
   -0.5760    0.5270    0.0270 C   0  0
   -0.8420   -0.2790   -2.3810 C   0  0
   -9.3830    1.0570    2.3160 C   0  0
    0.9080    0.3160   -0.0250 C   0  0  1  0  0  0
    0.6820   -0.1390   -2.5020 C   0  0
    1.5760   -0.1370    1.3110 C   0  0  1  0  0  0
    1.3440   -0.6020   -1.2010 C   0  0  1  0  0  0
    1.0080   -1.3520    1.7680 O   0  0
    3.1110   -0.2870    1.1800 C   0  0
    2.8790   -0.5760   -1.2890 C   0  0  1  0  0  0
    3.5230   -1.1640   -0.0200 C   0  0  1  0  0  0
    3.5270   -1.4080   -2.3990 C   0  0
    5.0180   -1.1860   -0.4430 C   0  0  2  0  0  0
    3.0550   -2.6190    0.1820 C   0  0
    4.9350   -1.7380   -1.8830 C   0  0
    5.7810   -2.0470    0.3830 O   0  0
    5.6520    0.1430   -0.4160 C   0  0
    6.1780    1.2110   -0.3890 C   0  0
    6.8280    2.5160   -0.3500 C   0  0
   -4.7230    0.3440    2.1310 H   0  0
   -3.4300    0.2190   -1.8790 H   0  0
   -3.0220    1.6110    2.1910 H   0  0
   -6.4120    1.4750    3.7640 H   0  0
   -7.3340    0.2070   -0.2720 H   0  0
   -0.5980    1.2870    2.0760 H   0  0
   -9.7460    0.4160    0.2830 H   0  0
   -1.1080   -1.3360   -2.4590 H   0  0
   -1.3150    0.2190   -3.2310 H   0  0
  -10.4340    1.1470    2.5550 H   0  0
    1.3160    1.3050   -0.2380 H   0  0
    1.0350   -0.7280   -3.3480 H   0  0
    0.9490    0.8970   -2.7090 H   0  0
    1.3980    0.5940    2.0980 H   0  0
    1.0140   -1.6250   -1.0100 H   0  0
    0.3510   -1.1230    2.4450 H   0  0
    3.5410   -0.6820    2.1030 H   0  0
    3.5230    0.7150    1.0680 H   0  0
    3.1870    0.4530   -1.4220 H   0  0
    3.5510   -0.8730   -3.3360 H   0  0
    2.9690   -2.3200   -2.5610 H   0  0
    3.4140   -3.2750   -0.6090 H   0  0
    1.9670   -2.6740    0.1930 H   0  0
    3.4200   -3.0120    1.1310 H   0  0
    5.7010   -1.3380   -2.5350 H   0  0
    5.0620   -2.8140   -1.9000 H   0  0
    5.5960   -1.8030    1.3030 H   0  0
    6.9650    2.8380    0.6840 H   0  0
    6.2170    3.2560   -0.8670 H   0  0
    7.8050    2.4690   -0.8320 H   0  0
  1  2  2  0
  2  3  1  0
  2  4  1  0
  3  5  1  0
  4  6  2  0
  4  7  1  0
  5  8  2  0
  5  9  1  0
  6 10  1  0
  7 11  2  0
  8 12  1  0
  9 13  2  0
 10 14  2  0
 10 15  1  0
 12 16  2  0
 17 14  1  0
 15 18  1  0
 17 19  1  0
 17 20  1  0
 19 21  1  0
 19 22  1  0
 20 23  1  0
 22 24  1  0
 23 25  1  0
 24 26  1  0
 24 27  1  0
 25 28  1  0
 26 29  1  0
 26 30  1  0
 30 31  3  0
 31 32  1  0
 11 14  1  0
 13 16  1  0
 20 18  1  0
 23 24  1  0
 26 28  1  0
  3 33  1  0
  6 34  1  0
  7 35  1  0
  8 36  1  0
  9 37  1  0
 11 38  1  0
 13 39  1  0
 15 40  1  0
 15 41  1  0
 16 42  1  0
 17 43  1  0
 18 44  1  0
 18 45  1  0
 19 46  1  0
 20 47  1  0
 21 48  1  0
 22 49  1  0
 22 50  1  0
 23 51  1  0
 25 52  1  0
 25 53  1  0
 27 54  1  0
 27 55  1  0
 27 56  1  0
 28 57  1  0
 28 58  1  0
 29 59  1  0
 32 60  1  0
 32 61  1  0
 32 62  1  0
M  END
> <Name>
CHEMBL3967119

> <IC50 nM>
455

> <Molecule_ChEMBL_ID>
CHEMBL3967119

> <Smiles>
CC#C[C@]1(O)CC[C@H]2[C@@H]3CCc4cc(C(=O)Nc5cccnc5)ccc4[C@H]3[C@@H](O)C[C@@]21C

$$$$
CHEMBL1094527
  SciTegic08162514323D

 43 46  0  0  1  0            999 V2000
    4.3950    6.6040   -1.0020 F   0  0
    3.9060    5.3690   -0.9060 C   0  0
    2.8670    5.0920    0.0000 C   0  0
    4.4320    4.3420   -1.7090 C   0  0
    2.3520    3.7890    0.1010 C   0  0
    3.9160    3.0390   -1.6100 C   0  0
    2.8750    2.7580   -0.7050 C   0  0
    2.3770    1.4980   -0.6080 N   0  0
    3.1270    0.3420   -0.5840 N   0  0
    1.0700    1.1430   -0.5160 C   0  0
    2.3970   -0.8240   -0.4790 C   0  0
    1.1430   -0.2340   -0.4440 C   0  0
   -0.1520    1.8540   -0.4900 C   0  0
   -0.0530   -0.9900   -0.3360 C   0  0
   -1.3500    1.1060   -0.3830 C   0  0
   -1.3030   -0.3120   -0.3050 C   0  0
   -2.5510   -1.0840   -0.1930 C   0  0  2  0  0  0
   -3.5160   -0.3180    0.4940 O   0  0
   -2.2910   -2.3420    0.5550 C   0  0
   -3.1660   -1.3610   -1.5650 C   0  0
   -2.0700   -2.3010    1.9470 C   0  0
   -2.2680   -3.5760   -0.1230 C   0  0
   -3.6310   -0.1890   -2.1040 F   0  0
   -4.2050   -2.2440   -1.4300 F   0  0
   -2.2150   -1.8980   -2.3930 F   0  0
   -1.8260   -3.4960    2.6460 C   0  0
   -2.0210   -4.7640    0.5840 C   0  0
   -1.6020   -3.4490    4.0660 C   0  0
   -1.8010   -4.7300    1.9690 C   0  0
   -1.4200   -3.4120    5.2110 N   0  0
    2.4630    5.8790    0.6190 H   0  0
    5.2290    4.5530   -2.4060 H   0  0
    1.5530    3.5940    0.8030 H   0  0
    4.3320    2.2620   -2.2360 H   0  0
    2.7460   -1.8480   -0.4400 H   0  0
   -0.1760    2.9320   -0.5490 H   0  0
   -0.0210   -2.0700   -0.2760 H   0  0
   -2.2990    1.6210   -0.3610 H   0  0
   -3.1040   -0.0120    1.3160 H   0  0
   -2.0900   -1.3480    2.4690 H   0  0
   -2.4360   -3.6150   -1.1900 H   0  0
   -2.0020   -5.7070    0.0640 H   0  0
   -1.6130   -5.6480    2.4980 H   0  0
  1  2  1  0
  2  3  2  0
  2  4  1  0
  3  5  1  0
  4  6  2  0
  5  7  2  0
  7  8  1  0
  8  9  1  0
  8 10  1  0
  9 11  2  0
 10 12  1  0
 10 13  2  0
 12 14  2  0
 13 15  1  0
 14 16  1  0
 16 17  1  0
 17 18  1  0
 17 19  1  0
 17 20  1  0
 19 21  2  0
 19 22  1  0
 20 23  1  0
 20 24  1  0
 20 25  1  0
 21 26  1  0
 22 27  2  0
 26 28  1  0
 26 29  2  0
 28 30  3  0
  6  7  1  0
 11 12  1  0
 15 16  2  0
 27 29  1  0
  3 31  1  0
  4 32  1  0
  5 33  1  0
  6 34  1  0
 11 35  1  0
 13 36  1  0
 14 37  1  0
 15 38  1  0
 18 39  1  0
 21 40  1  0
 22 41  1  0
 27 42  1  0
 29 43  1  0
M  END
> <Name>
CHEMBL1094527

> <IC50 nM>
99

> <Molecule_ChEMBL_ID>
CHEMBL1094527

> <Smiles>
N#Cc1cccc(C(O)(c2ccc3c(cnn3-c3ccc(F)cc3)c2)C(F)(F)F)c1

$$$$
CHEMBL4211936
  SciTegic08162514323D

 68 72  0  0  1  0            999 V2000
    7.0220    5.9360   -1.3580 F   0  0
    6.5350    4.6990   -1.2620 C   0  0
    7.0720    3.6680   -2.0510 C   0  0
    5.4810    4.4260   -0.3730 C   0  0
    6.5590    2.3630   -1.9510 C   0  0
    4.9650    3.1230   -0.2720 C   0  0
    5.5020    2.0880   -1.0610 C   0  0
    5.0040    0.8280   -0.9630 N   0  0
    5.7540   -0.3280   -0.9400 N   0  0
    3.6970    0.4730   -0.8730 C   0  0
    5.0260   -1.4940   -0.8340 C   0  0
    3.7720   -0.9040   -0.7990 C   0  0
    2.4750    1.1840   -0.8460 C   0  0
    2.5760   -1.6600   -0.6910 C   0  0
    1.2770    0.4340   -0.7400 C   0  0
    1.3260   -0.9840   -0.6620 C   0  0
    0.1900   -1.6870   -0.5610 O   0  0
   -0.9490   -1.0350   -0.0200 C   0  0  2  0  0  0
   -0.6070   -0.4590    1.3090 C   0  0
   -2.1050   -2.0310    0.0800 C   0  0  1  0  0  0
   -1.0100    0.8500    1.6410 C   0  0
    0.1190   -1.2150    2.2440 C   0  0
   -3.3180   -1.3810    0.5980 N   0  0
   -2.3890   -2.7420   -1.2420 C   0  0
   -0.7070    1.3970    2.8540 N   0  0
    0.4260   -0.6390    3.4880 C   0  0
   -4.3140   -2.1460    1.1350 C   0  0
   -2.7320   -1.7770   -2.3200 C   0  0
    0.0000    0.6740    3.7710 C   0  0
   -4.1990   -3.3500    1.1840 O   0  0
   -5.5490   -1.4630    1.6600 C   0  0
   -4.0630   -1.3500   -2.4840 C   0  0
   -1.7280   -1.2890   -3.1760 C   0  0
    0.2870    1.2150    4.9390 O   0  0
   -5.2250   -0.6020    2.6760 F   0  0
   -6.1780   -0.7710    0.6560 F   0  0
   -6.4820   -2.5510    2.1910 C   0  0
   -4.3870   -0.4370   -3.5040 C   0  0
   -2.0530   -0.3770   -4.1930 C   0  0
   -0.1950    2.5250    5.2030 C   0  0
   -3.3830    0.0490   -4.3580 C   0  0
    7.8830    3.8750   -2.7360 H   0  0
    5.0650    5.2170    0.2340 H   0  0
    6.9860    1.5840   -2.5670 H   0  0
    4.1540    2.9340    0.4180 H   0  0
    5.3770   -2.5180   -0.7970 H   0  0
    2.4510    2.2620   -0.9060 H   0  0
    2.6020   -2.7400   -0.6330 H   0  0
    0.3260    0.9430   -0.7170 H   0  0
   -1.2130   -0.2050   -0.6740 H   0  0
   -1.9240   -2.7540    0.8750 H   0  0
   -1.5700    1.4340    0.9260 H   0  0
    0.4400   -2.2210    2.0140 H   0  0
   -3.4140   -0.3850    0.5590 H   0  0
   -3.1990   -3.4630   -1.1290 H   0  0
   -1.5290   -3.3400   -1.5510 H   0  0
    0.9840   -1.2010    4.2210 H   0  0
   -4.8380   -1.7190   -1.8300 H   0  0
   -0.7050   -1.6130   -3.0550 H   0  0
   -7.4060   -2.1330    2.5920 H   0  0
   -6.0000   -3.1170    2.9880 H   0  0
   -6.7480   -3.2500    1.3980 H   0  0
   -5.4080   -0.1090   -3.6290 H   0  0
   -1.2810   -0.0040   -4.8520 H   0  0
    0.2810    3.2110    4.5040 H   0  0
   -1.2850    2.4980    5.1840 H   0  0
    0.1130    2.8070    6.2090 H   0  0
   -3.6330    0.7500   -5.1410 H   0  0
  1  2  1  0
  2  3  2  0
  2  4  1  0
  3  5  1  0
  4  6  2  0
  5  7  2  0
  7  8  1  0
  8  9  1  0
  8 10  1  0
  9 11  2  0
 10 12  1  0
 10 13  2  0
 12 14  2  0
 13 15  1  0
 14 16  1  0
 16 17  1  0
 18 17  1  0
 18 19  1  0
 18 20  1  0
 19 21  2  0
 19 22  1  0
 20 23  1  0
 20 24  1  0
 21 25  1  0
 22 26  2  0
 23 27  1  0
 24 28  1  0
 25 29  2  0
 27 30  2  0
 27 31  1  0
 28 32  2  0
 28 33  1  0
 29 34  1  0
 31 35  1  0
 31 36  1  0
 31 37  1  0
 32 38  1  0
 33 39  2  0
 34 40  1  0
 38 41  2  0
  6  7  1  0
 11 12  1  0
 15 16  2  0
 26 29  1  0
 39 41  1  0
  3 42  1  0
  4 43  1  0
  5 44  1  0
  6 45  1  0
 11 46  1  0
 13 47  1  0
 14 48  1  0
 15 49  1  0
 18 50  1  0
 20 51  1  0
 21 52  1  0
 22 53  1  0
 23 54  1  0
 24 55  1  0
 24 56  1  0
 26 57  1  0
 32 58  1  0
 33 59  1  0
 37 60  1  0
 37 61  1  0
 37 62  1  0
 38 63  1  0
 39 64  1  0
 40 65  1  0
 40 66  1  0
 40 67  1  0
 41 68  1  0
M  END
> <Name>
CHEMBL4211936

> <IC50 nM>
2

> <Molecule_ChEMBL_ID>
CHEMBL4211936

> <Smiles>
COc1ccc([C@@H](Oc2ccc3c(cnn3-c3ccc(F)cc3)c2)[C@H](Cc2ccccc2)NC(=O)C(C)(F)F)cn1

$$$$
CHEMBL4205353
  SciTegic08162514323D

 57 60  0  0  1  0            999 V2000
    4.8420    3.7930   -0.1350 S   0  0
    5.5740    4.9920   -0.8460 N   0  0
    5.5180    2.6720   -1.1860 C   0  0
    6.3610    4.5860   -1.9100 C   0  0
    5.2620    1.3420   -1.0980 N   0  0
    6.3550    3.1950   -2.1490 C   0  0
    6.0330    0.2090   -1.0760 N   0  0
    3.9450    1.0430   -1.0100 C   0  0
    5.2710   -0.9410   -0.9710 C   0  0
    4.0180   -0.3360   -0.9380 C   0  0
    2.7270    1.7620   -0.9840 C   0  0
    2.8160   -1.0860   -0.8280 C   0  0
    1.5270    1.0160   -0.8770 C   0  0
    1.5700   -0.4020   -0.7990 C   0  0
    0.4320   -1.1020   -0.6970 O   0  0
   -0.7250   -0.4260   -0.2270 C   0  0  2  0  0  0
   -0.4430    0.1660    1.1070 C   0  0
   -1.9000   -1.4020   -0.1740 C   0  0  1  0  0  0
   -0.8610    1.4770    1.4000 C   0  0
    0.2420   -0.5860    2.0800 C   0  0
   -3.1450   -0.7090    0.1930 N   0  0
   -2.0740   -2.1870   -1.4730 C   0  0
   -0.5960    2.0350    2.6640 C   0  0
    0.5080   -0.0250    3.3420 C   0  0
   -3.9920   -1.2870    1.0940 C   0  0
   -3.0860   -3.3260   -1.3440 C   0  0
   -2.3500   -1.2850   -2.6760 C   0  0
    0.0900    1.2830    3.6330 C   0  0
   -3.7250   -2.3590    1.5840 O   0  0
   -5.2620   -0.5640    1.4570 C   0  0
   -4.9770    0.6520    2.0210 F   0  0
   -6.0450   -0.3830    0.3480 F   0  0
   -6.0080   -1.4340    2.4710 C   0  0
    6.9240    5.3050   -2.4900 H   0  0
    6.8970    2.6680   -2.9240 H   0  0
    5.6020   -1.9710   -0.9320 H   0  0
    2.7050    2.8400   -1.0450 H   0  0
    2.8380   -2.1640   -0.7700 H   0  0
    0.5760    1.5270   -0.8560 H   0  0
   -0.9670    0.3690   -0.9320 H   0  0
   -1.7070   -2.1970    0.5470 H   0  0
   -1.3890    2.0590    0.6600 H   0  0
    0.5660   -1.5920    1.8630 H   0  0
   -3.3670    0.1780   -0.2110 H   0  0
   -1.1130   -2.5640   -1.8260 H   0  0
   -0.9180    3.0410    2.8870 H   0  0
    1.0350   -0.6030    4.0880 H   0  0
   -3.1230   -3.9390   -2.2440 H   0  0
   -4.0880   -2.9320   -1.1680 H   0  0
   -2.8320   -3.9750   -0.5060 H   0  0
   -2.4320   -1.8750   -3.5900 H   0  0
   -3.2720   -0.7230   -2.5310 H   0  0
   -1.5410   -0.5680   -2.8150 H   0  0
    0.2930    1.7130    4.6040 H   0  0
   -6.9450   -0.9750    2.7870 H   0  0
   -5.4010   -1.5960    3.3610 H   0  0
   -6.2420   -2.4080    2.0450 H   0  0
  1  2  1  0
  1  3  1  0
  2  4  2  0
  3  5  1  0
  3  6  2  0
  5  7  1  0
  5  8  1  0
  7  9  2  0
  8 10  1  0
  8 11  2  0
 10 12  2  0
 11 13  1  0
 12 14  1  0
 14 15  1  0
 16 15  1  0
 16 17  1  0
 16 18  1  0
 17 19  2  0
 17 20  1  0
 18 21  1  0
 18 22  1  0
 19 23  1  0
 20 24  2  0
 21 25  1  0
 22 26  1  0
 22 27  1  0
 23 28  2  0
 25 29  2  0
 25 30  1  0
 30 31  1  0
 30 32  1  0
 30 33  1  0
  4  6  1  0
  9 10  1  0
 13 14  2  0
 24 28  1  0
  4 34  1  0
  6 35  1  0
  9 36  1  0
 11 37  1  0
 12 38  1  0
 13 39  1  0
 16 40  1  0
 18 41  1  0
 19 42  1  0
 20 43  1  0
 21 44  1  0
 22 45  1  0
 23 46  1  0
 24 47  1  0
 26 48  1  0
 26 49  1  0
 26 50  1  0
 27 51  1  0
 27 52  1  0
 27 53  1  0
 28 54  1  0
 33 55  1  0
 33 56  1  0
 33 57  1  0
M  END
> <Name>
CHEMBL4205353

> <IC50 nM>
39

> <Molecule_ChEMBL_ID>
CHEMBL4205353

> <Smiles>
CC(C)[C@H](NC(=O)C(C)(F)F)[C@H](Oc1ccc2c(cnn2-c2ccns2)c1)c1ccccc1

$$$$
CHEMBL63239
  SciTegic08162514323D

 46 49  0  0  1  0            999 V2000
   -4.3810   -1.7070    0.5640 S   0  0
   -4.1900   -2.5040   -0.6330 O   0  0
   -4.0120   -2.4040    1.7830 O   0  0
   -3.4280   -0.4020    0.4390 N   0  0
   -6.1040   -1.2320    0.6720 C   0  0
   -2.0980   -0.5510    0.3670 C   0  0
   -1.2520    0.5780    0.2700 C   0  0
   -1.5200   -1.8400    0.3810 C   0  0
    0.1640    0.4360    0.1990 C   0  0
   -0.1170   -2.0000    0.3240 C   0  0
    0.7460   -0.8670    0.2810 C   0  0
    1.0570    1.6290    0.0660 C   0  0  1  0  0  0
    2.2320   -0.9800    0.3030 C   0  0
    2.3420    1.3010   -0.4800 O   0  0
    0.4860    2.7090   -0.7910 C   0  0
    2.9670    0.1540   -0.1520 C   0  0
    2.9650   -2.1350    0.7400 C   0  0
    0.1660    3.9590   -0.2300 C   0  0
    0.2680    2.4790   -2.1620 C   0  0
    4.3750    0.1040   -0.2750 C   0  0
    4.3770   -2.1680    0.6150 C   0  0
    2.3360   -3.3200    1.3460 C   0  0
   -0.3730    4.9750   -1.0390 C   0  0
   -0.2720    3.4960   -2.9690 C   0  0
    5.0780   -1.0590    0.0980 C   0  0
    3.2230   -3.9000    2.2730 O   0  0
   -0.5920    4.7440   -2.4080 C   0  0
   -3.8300    0.5120    0.4180 H   0  0
   -6.7250   -2.1270    0.7190 H   0  0
   -6.2460   -0.5720    1.5270 H   0  0
   -6.3830   -0.6780   -0.2250 H   0  0
   -1.6910    1.5660    0.2500 H   0  0
   -2.1410   -2.7250    0.4360 H   0  0
    0.2400   -3.0160    0.3110 H   0  0
    1.2170    2.0370    1.0660 H   0  0
    0.3300    4.1430    0.8200 H   0  0
    0.5120    1.5220   -2.6000 H   0  0
    4.9160    0.9570   -0.6560 H   0  0
    4.9320   -3.0430    0.9200 H   0  0
    2.1270   -4.0570    0.5680 H   0  0
    1.4340   -3.0200    1.8790 H   0  0
   -0.6190    5.9360   -0.6070 H   0  0
   -0.4380    3.3180   -4.0220 H   0  0
    6.1500   -1.0980   -0.0100 H   0  0
    2.7750   -4.6760    2.6500 H   0  0
   -1.0040    5.5260   -3.0270 H   0  0
  1  2  2  0
  1  3  2  0
  1  4  1  0
  1  5  1  0
  4  6  1  0
  6  7  2  0
  6  8  1  0
  7  9  1  0
  8 10  2  0
  9 11  2  0
  9 12  1  0
 11 13  1  0
 12 14  1  0
 12 15  1  0
 13 16  2  0
 13 17  1  0
 15 18  2  0
 15 19  1  0
 16 20  1  0
 17 21  2  0
 17 22  1  0
 18 23  1  0
 19 24  2  0
 20 25  2  0
 22 26  1  0
 23 27  2  0
 10 11  1  0
 14 16  1  0
 21 25  1  0
 24 27  1  0
  4 28  1  0
  5 29  1  0
  5 30  1  0
  5 31  1  0
  7 32  1  0
  8 33  1  0
 10 34  1  0
 12 35  1  0
 18 36  1  0
 19 37  1  0
 20 38  1  0
 21 39  1  0
 22 40  1  0
 22 41  1  0
 23 42  1  0
 24 43  1  0
 25 44  1  0
 26 45  1  0
 27 46  1  0
M  END
> <Name>
CHEMBL63239

> <IC50 nM>
180

> <Molecule_ChEMBL_ID>
CHEMBL63239

> <Smiles>
CS(=O)(=O)Nc1ccc2c(c1)C(c1ccccc1)Oc1cccc(CO)c1-2

$$$$
CHEMBL196975
  SciTegic08162514323D

 70 74  0  0  1  0            999 V2000
   -5.5550    7.0820   -2.9610 F   0  0
   -5.1720    5.9670   -2.3420 C   0  0
   -4.0940    5.2190   -2.8420 C   0  0
   -5.8480    5.5390   -1.1850 C   0  0
   -3.6890    4.0410   -2.1890 C   0  0
   -5.4470    4.3630   -0.5310 C   0  0
   -4.3650    3.6090   -1.0310 C   0  0
   -3.9770    2.4730   -0.3980 N   0  0
   -4.8240    1.5160    0.0660 N   0  0
   -2.6930    2.1110   -0.1350 C   0  0
   -4.1840    0.4770    0.6680 C   0  0
   -2.8650    0.9040    0.5220 C   0  0
   -1.3870    2.7380   -0.4080 C   0  0
   -1.6170    0.1860    1.0250 C   0  0
   -0.2730    2.0020   -0.1890 C   0  0
   -0.3550    0.5040    0.1500 C   0  0  1  0  0  0
    1.1020    2.6250   -0.2660 C   0  0
    0.9630    0.0510    0.8830 C   0  0
   -0.5210   -0.2300   -1.1950 C   0  0
    1.8750    2.4340    1.0530 C   0  0
    0.7850   -1.1500    1.6110 O   0  0
    1.9860   -0.3180   -0.0370 O   0  0
    1.5120    1.1410    1.8200 C   0  0
    1.0080   -2.2560    0.7720 C   0  0  1  0  0  0
    2.1450   -1.7250   -0.1000 C   0  0  1  0  0  0
    1.3590   -3.4750    1.6130 C   0  0
    2.0660   -2.1760   -1.5530 C   0  0
    0.1090   -3.9650    2.3440 C   0  0
    3.0860   -1.3950   -2.3850 C   0  0
    0.3560   -5.2460    3.1430 C   0  0
    4.5290   -1.7070   -1.9900 C   0  0
    1.2520   -5.0200    4.3600 C   0  0
    5.5490   -1.0760   -2.9410 C   0  0
   -3.5720    5.5450   -3.7300 H   0  0
   -6.6780    6.1110   -0.7990 H   0  0
   -2.8570    3.4790   -2.5900 H   0  0
   -5.9790    4.0490    0.3580 H   0  0
   -4.6190   -0.4040    1.1170 H   0  0
   -1.3260    3.7560   -0.7620 H   0  0
   -1.8070   -0.8890    1.0630 H   0  0
   -1.4470    0.5080    2.0550 H   0  0
    1.6470    2.1560   -1.0860 H   0  0
    1.0390    3.6860   -0.5100 H   0  0
    0.3710   -0.1480   -1.8160 H   0  0
   -1.3590    0.1820   -1.7580 H   0  0
   -0.7190   -1.2910   -1.0330 H   0  0
    2.9430    2.4390    0.8320 H   0  0
    1.7050    3.2890    1.7070 H   0  0
    2.3830    0.7890    2.3770 H   0  0
    0.7560    1.3770    2.5720 H   0  0
    0.1090   -2.4280    0.1950 H   0  0
    3.1090   -1.9610    0.3260 H   0  0
    1.7770   -4.2660    0.9920 H   0  0
    2.1500   -3.2360    2.3240 H   0  0
    1.0590   -2.0350   -1.9470 H   0  0
    2.2440   -3.2480   -1.6350 H   0  0
   -0.7170   -4.1000    1.6470 H   0  0
   -0.2950   -3.1840    2.9860 H   0  0
    2.9300   -1.5700   -3.4490 H   0  0
    2.8930   -0.3240   -2.3240 H   0  0
    0.7680   -6.0250    2.5000 H   0  0
   -0.5880   -5.7050    3.4380 H   0  0
    4.7230   -1.4020   -0.9630 H   0  0
    4.6860   -2.7830   -1.9180 H   0  0
    1.3750   -5.9280    4.9490 H   0  0
    0.8300   -4.2540    5.0120 H   0  0
    2.2420   -4.6860    4.0530 H   0  0
    6.5650   -1.3090   -2.6230 H   0  0
    5.4020   -1.4390   -3.9590 H   0  0
    5.4420    0.0080   -2.9550 H   0  0
  1  2  1  0
  2  3  2  0
  2  4  1  0
  3  5  1  0
  4  6  2  0
  5  7  2  0
  7  8  1  0
  8  9  1  0
  8 10  1  0
  9 11  2  0
 10 12  2  0
 10 13  1  0
 12 14  1  0
 13 15  2  0
 14 16  1  0
 15 17  1  0
 16 18  1  0
 16 19  1  0
 17 20  1  0
 18 21  1  0
 18 22  1  0
 18 23  1  0
 21 24  1  0
 22 25  1  0
 24 26  1  0
 25 27  1  0
 26 28  1  0
 27 29  1  0
 28 30  1  0
 29 31  1  0
 30 32  1  0
 31 33  1  0
  6  7  1  0
 11 12  1  0
 15 16  1  0
 20 23  1  0
 24 25  1  0
  3 34  1  0
  4 35  1  0
  5 36  1  0
  6 37  1  0
 11 38  1  0
 13 39  1  0
 14 40  1  0
 14 41  1  0
 17 42  1  0
 17 43  1  0
 19 44  1  0
 19 45  1  0
 19 46  1  0
 20 47  1  0
 20 48  1  0
 23 49  1  0
 23 50  1  0
 24 51  1  0
 25 52  1  0
 26 53  1  0
 26 54  1  0
 27 55  1  0
 27 56  1  0
 28 57  1  0
 28 58  1  0
 29 59  1  0
 29 60  1  0
 30 61  1  0
 30 62  1  0
 31 63  1  0
 31 64  1  0
 32 65  1  0
 32 66  1  0
 32 67  1  0
 33 68  1  0
 33 69  1  0
 33 70  1  0
M  END
> <Name>
CHEMBL196975

> <IC50 nM>
22

> <Molecule_ChEMBL_ID>
CHEMBL196975

> <Smiles>
CCCC[C@H]1OC2(CCCC3=Cc4c(cnn4-c4ccc(F)cc4)C[C@@]32C)O[C@@H]1CCCC

$$$$
CHEMBL195451
  SciTegic08162514323D

 55 59  0  0  1  0            999 V2000
   -6.5570   -0.5100   -4.6560 F   0  0
   -5.7130   -0.0900   -3.7170 C   0  0
   -6.1970    0.6090   -2.5980 C   0  0
   -4.3360   -0.3460   -3.8420 C   0  0
   -5.3070    1.0530   -1.6040 C   0  0
   -3.4430    0.0980   -2.8520 C   0  0
   -3.9280    0.7990   -1.7290 C   0  0
   -3.0660    1.2270   -0.7700 N   0  0
   -3.0660    2.4770   -0.2360 N   0  0
   -2.0800    0.4860   -0.1990 C   0  0
   -2.1030    2.6520    0.7050 C   0  0
   -1.5190    1.3870    0.6880 C   0  0
   -1.6410   -0.9020   -0.3980 C   0  0
   -0.3460    0.9630    1.5570 C   0  0
   -0.5990   -1.3730    0.3220 C   0  0
    0.1580   -0.5230    1.3590 C   0  0  1  0  0  0
   -0.1190   -2.7950    0.1170 C   0  0
    1.6820   -0.5570    0.9860 C   0  0
   -0.0680   -1.2580    2.6930 C   0  0
    1.3790   -2.8240   -0.2030 C   0  0
    1.8460    0.1110   -0.2790 O   0  0
    2.4140    0.0650    2.0550 O   0  0
    2.2010   -2.0120    0.8110 C   0  0
    2.7990    1.1680   -0.3300 C   0  0  1  0  0  0
    3.8130    0.2340    1.8360 C   0  0  1  0  0  0
    4.0800    0.7070    0.3870 C   0  0
    3.0280    1.5200   -1.8010 C   0  0
    4.3030    1.2330    2.8870 C   0  0
   -7.2540    0.8070   -2.4960 H   0  0
   -3.9590   -0.8830   -4.7010 H   0  0
   -5.6990    1.5900   -0.7500 H   0  0
   -2.3890   -0.1070   -2.9650 H   0  0
   -1.8890    3.5450    1.2790 H   0  0
   -2.1460   -1.5350   -1.1130 H   0  0
   -0.6330    1.1350    2.5960 H   0  0
    0.4570    1.6780    1.3750 H   0  0
   -0.3140   -3.3730    1.0220 H   0  0
   -0.6740   -3.2830   -0.6860 H   0  0
    0.3260   -2.2730    2.6720 H   0  0
   -1.1310   -1.3180    2.9260 H   0  0
    0.4220   -0.7280    3.5120 H   0  0
    1.7330   -3.8550   -0.2250 H   0  0
    1.5410   -2.4260   -1.2050 H   0  0
    3.2440   -2.0250    0.4920 H   0  0
    2.1780   -2.5310    1.7700 H   0  0
    2.3770    2.0290    0.1880 H   0  0
    4.3010   -0.7250    2.0060 H   0  0
    4.5260   -0.1150   -0.1760 H   0  0
    4.8220    1.5060    0.3730 H   0  0
    2.1060    1.8320   -2.2930 H   0  0
    3.4220    0.6620   -2.3460 H   0  0
    3.7460    2.3340   -1.8950 H   0  0
    4.0800    0.8730    3.8930 H   0  0
    5.3770    1.3910    2.7950 H   0  0
    3.8130    2.1970    2.7620 H   0  0
  1  2  1  0
  2  3  2  0
  2  4  1  0
  3  5  1  0
  4  6  2  0
  5  7  2  0
  7  8  1  0
  8  9  1  0
  8 10  1  0
  9 11  2  0
 10 12  2  0
 10 13  1  0
 12 14  1  0
 13 15  2  0
 14 16  1  0
 15 17  1  0
 16 18  1  0
 16 19  1  0
 17 20  1  0
 18 21  1  0
 18 22  1  0
 18 23  1  0
 21 24  1  0
 22 25  1  0
 24 26  1  0
 24 27  1  0
 25 28  1  0
  6  7  1  0
 11 12  1  0
 15 16  1  0
 20 23  1  0
 25 26  1  0
  3 29  1  0
  4 30  1  0
  5 31  1  0
  6 32  1  0
 11 33  1  0
 13 34  1  0
 14 35  1  0
 14 36  1  0
 17 37  1  0
 17 38  1  0
 19 39  1  0
 19 40  1  0
 19 41  1  0
 20 42  1  0
 20 43  1  0
 23 44  1  0
 23 45  1  0
 24 46  1  0
 25 47  1  0
 26 48  1  0
 26 49  1  0
 27 50  1  0
 27 51  1  0
 27 52  1  0
 28 53  1  0
 28 54  1  0
 28 55  1  0
M  END
> <Name>
CHEMBL195451

> <IC50 nM>
8.3

> <Molecule_ChEMBL_ID>
CHEMBL195451

> <Smiles>
C[C@@H]1C[C@@H](C)OC2(CCCC3=Cc4c(cnn4-c4ccc(F)cc4)C[C@@]32C)O1

$$$$
CHEMBL206706
  SciTegic08162514323D

 54 56  0  0  0  0            999 V2000
   -0.8520   -2.6700   -1.0120 S   0  0
   -1.6950   -2.1540    0.5100 C   0  0
   -2.2270   -2.4550   -2.1760 C   0  0
   -2.0020   -0.6780    0.4390 C   0  0
   -1.8500   -3.0370   -3.5120 C   0  0
   -0.9180    0.3460    0.4900 C   0  0
   -3.2870   -0.2830    0.3280 C   0  0
   -2.8280   -3.3500   -4.3770 C   0  0
   -1.2500    1.7290    0.4200 C   0  0
    0.4390   -0.0550    0.6070 C   0  0
   -3.6890    1.1800    0.2520 C   0  0
   -2.5410    2.1310    0.3050 N   0  0
   -0.2090    2.6930    0.4690 C   0  0
    1.4730    0.9140    0.6580 C   0  0
   -4.4410    1.3970   -1.0620 C   0  0
   -4.6230    1.4770    1.4280 C   0  0
    1.1410    2.2890    0.5880 C   0  0
    2.8610    0.5000    0.7790 C   0  0
    3.8130    0.9300   -0.1720 C   0  0
    3.2600   -0.3320    1.8500 C   0  0
    3.4650    1.7070   -1.1800 O   0  0
    5.1540    0.5250   -0.0470 C   0  0
    2.3890   -0.7480    2.7500 O   0  0
    4.6040   -0.7290    1.9610 C   0  0
    4.4960    2.2340   -2.0020 C   0  0
    5.5490   -0.3010    1.0160 C   0  0
    2.8810   -1.4730    3.8670 C   0  0
   -2.6210   -2.7190    0.6210 H   0  0
   -1.0550   -2.3590    1.3670 H   0  0
   -2.4510   -1.3950   -2.2830 H   0  0
   -3.1130   -2.9610   -1.7910 H   0  0
   -0.8460   -3.2340   -3.8590 H   0  0
   -4.0640   -1.0350    0.2930 H   0  0
   -2.7150   -3.7730   -5.3630 H   0  0
   -3.8320   -3.1480   -4.0310 H   0  0
    0.6890   -1.1040    0.6600 H   0  0
   -2.7580    3.1090    0.2520 H   0  0
   -0.4320    3.7500    0.4180 H   0  0
   -3.8130    1.1930   -1.9300 H   0  0
   -4.7930    2.4260   -1.1410 H   0  0
   -5.3130    0.7440   -1.1230 H   0  0
   -4.1250    1.3360    2.3870 H   0  0
   -5.4940    0.8240    1.4040 H   0  0
   -4.9790    2.5080    1.3870 H   0  0
    1.9120    3.0430    0.6250 H   0  0
    5.8850    0.8540   -0.7730 H   0  0
    4.9120   -1.3650    2.7770 H   0  0
    4.1920    2.9430   -2.7710 H   0  0
    4.9960    1.4000   -2.4960 H   0  0
    5.2250    2.7290   -1.3610 H   0  0
    6.5820   -0.6070    1.1060 H   0  0
    3.2560   -2.4340    3.5120 H   0  0
    3.5940   -0.8420    4.3970 H   0  0
    2.0470   -1.6700    4.5390 H   0  0
  1  2  1  0
  1  3  1  0
  2  4  1  0
  3  5  1  0
  4  6  1  0
  4  7  2  0
  5  8  2  0
  6  9  2  0
  6 10  1  0
  7 11  1  0
  9 12  1  0
  9 13  1  0
 10 14  2  0
 11 15  1  0
 11 16  1  0
 13 17  2  0
 14 18  1  0
 18 19  2  0
 18 20  1  0
 19 21  1  0
 19 22  1  0
 20 23  1  0
 20 24  2  0
 21 25  1  0
 22 26  2  0
 23 27  1  0
 11 12  1  0
 14 17  1  0
 24 26  1  0
  2 28  1  0
  2 29  1  0
  3 30  1  0
  3 31  1  0
  5 32  1  0
  7 33  1  0
  8 34  1  0
  8 35  1  0
 10 36  1  0
 12 37  1  0
 13 38  1  0
 15 39  1  0
 15 40  1  0
 15 41  1  0
 16 42  1  0
 16 43  1  0
 16 44  1  0
 17 45  1  0
 22 46  1  0
 24 47  1  0
 25 48  1  0
 25 49  1  0
 25 50  1  0
 26 51  1  0
 27 52  1  0
 27 53  1  0
 27 54  1  0
M  END
> <Name>
CHEMBL206706

> <IC50 nM>
2000

> <Molecule_ChEMBL_ID>
CHEMBL206706

> <Smiles>
C=CCSCC1=CC(C)(C)Nc2ccc(-c3c(OC)cccc3OC)cc21

$$$$
CHEMBL378586
  SciTegic08162514323D

 49 51  0  0  0  0            999 V2000
   -1.1430   -2.1700    1.4670 S   0  0
   -1.5250   -1.7130   -0.2480 C   0  0
   -0.8320   -3.9400    1.2170 C   0  0
   -1.8320   -0.2360   -0.3180 C   0  0
   -0.4830   -4.5780    2.5330 C   0  0
   -0.7460    0.7870   -0.2680 C   0  0
   -3.1170    0.1580   -0.4300 C   0  0
   -0.5610   -5.9160    2.6390 C   0  0
   -1.0780    2.1720   -0.3380 C   0  0
    0.6090    0.3870   -0.1500 C   0  0
   -3.5180    1.6210   -0.5060 C   0  0
   -2.3710    2.5720   -0.4530 N   0  0
   -0.0390    3.1350   -0.2890 C   0  0
    1.6430    1.3550   -0.1000 C   0  0
   -4.2720    1.8380   -1.8200 C   0  0
   -4.4510    1.9200    0.6700 C   0  0
    1.3100    2.7300   -0.1700 C   0  0
    3.0330    0.9410    0.0220 C   0  0
    3.8220    0.6970   -1.1250 C   0  0
    3.5960    0.7850    1.3050 C   0  0
    5.1620    0.2970   -0.9760 C   0  0
    3.2640    0.8520   -2.4960 C   0  0
    4.9360    0.3850    1.4430 C   0  0
    5.7190    0.1430    0.3050 C   0  0
   -0.6700   -1.9430   -0.8850 H   0  0
   -2.3850   -2.2850   -0.5940 H   0  0
   -0.0100   -4.0680    0.5120 H   0  0
   -1.7230   -4.4100    0.8030 H   0  0
   -0.1640   -4.0630    3.4280 H   0  0
   -3.8930   -0.5940   -0.4650 H   0  0
   -0.3440   -6.5120    3.5140 H   0  0
   -0.8750   -6.4320    1.7460 H   0  0
    0.8610   -0.6620   -0.0980 H   0  0
   -2.5860    3.5510   -0.5060 H   0  0
   -0.2600    4.1930   -0.3400 H   0  0
   -3.6410    1.6370   -2.6870 H   0  0
   -4.6230    2.8670   -1.8960 H   0  0
   -5.1410    1.1840   -1.8810 H   0  0
   -3.9550    1.7750    1.6290 H   0  0
   -5.3240    1.2660    0.6450 H   0  0
   -4.8070    2.9490    0.6290 H   0  0
    2.0820    3.4860   -0.1330 H   0  0
    3.0080    0.9670    2.1930 H   0  0
    5.7730    0.1070   -1.8480 H   0  0
    2.5800    0.0290   -2.7070 H   0  0
    2.7870    1.8280   -2.5880 H   0  0
    4.0720    0.8070   -3.2270 H   0  0
    5.3630    0.2660    2.4280 H   0  0
    6.7480   -0.1640    0.4120 H   0  0
  1  2  1  0
  1  3  1  0
  2  4  1  0
  3  5  1  0
  4  6  1  0
  4  7  2  0
  5  8  2  0
  6  9  2  0
  6 10  1  0
  7 11  1  0
  9 12  1  0
  9 13  1  0
 10 14  2  0
 11 15  1  0
 11 16  1  0
 13 17  2  0
 14 18  1  0
 18 19  2  0
 18 20  1  0
 19 21  1  0
 19 22  1  0
 20 23  2  0
 21 24  2  0
 11 12  1  0
 14 17  1  0
 23 24  1  0
  2 25  1  0
  2 26  1  0
  3 27  1  0
  3 28  1  0
  5 29  1  0
  7 30  1  0
  8 31  1  0
  8 32  1  0
 10 33  1  0
 12 34  1  0
 13 35  1  0
 15 36  1  0
 15 37  1  0
 15 38  1  0
 16 39  1  0
 16 40  1  0
 16 41  1  0
 17 42  1  0
 20 43  1  0
 21 44  1  0
 22 45  1  0
 22 46  1  0
 22 47  1  0
 23 48  1  0
 24 49  1  0
M  END
> <Name>
CHEMBL378586

> <IC50 nM>
2000

> <Molecule_ChEMBL_ID>
CHEMBL378586

> <Smiles>
C=CCSCC1=CC(C)(C)Nc2ccc(-c3ccccc3C)cc21

$$$$
CHEMBL206278
  SciTegic08162514323D

 50 52  0  0  0  0            999 V2000
   -0.8590   -2.0250   -1.4860 S   0  0
   -1.7250   -1.5150    0.0230 C   0  0
   -0.6440   -3.7870   -1.1000 C   0  0
   -2.0310   -0.0390   -0.0470 C   0  0
    0.0740   -4.4650   -2.2360 C   0  0
   -0.9470    0.9850    0.0040 C   0  0
   -3.3160    0.3560   -0.1560 C   0  0
    0.6430   -5.6620   -2.0120 C   0  0
   -1.2790    2.3670   -0.0660 C   0  0
    0.4100    0.5840    0.1230 C   0  0
   -3.7190    1.8170   -0.2320 C   0  0
   -2.5700    2.7700   -0.1800 N   0  0
   -0.2380    3.3320   -0.0160 C   0  0
    1.4430    1.5530    0.1720 C   0  0
   -4.4710    2.0350   -1.5490 C   0  0
   -4.6520    2.1150    0.9430 C   0  0
    1.1110    2.9260    0.1020 C   0  0
    2.8340    1.1370    0.2950 C   0  0
    3.2230    0.2070    1.2830 C   0  0
    3.7970    1.6720   -0.5840 C   0  0
    2.3420   -0.3060    2.1170 O   0  0
    4.5720   -0.1780    1.3810 C   0  0
    5.1430    1.2830   -0.4780 C   0  0
    2.7460   -1.4040    2.9220 C   0  0
    5.5290    0.3580    0.5040 C   0  0
    6.0510    1.7890   -1.3110 F   0  0
   -2.6500   -2.0820    0.1210 H   0  0
   -1.0980   -1.7230    0.8910 H   0  0
   -1.6210   -4.2480   -0.9510 H   0  0
   -0.0660   -3.8890   -0.1820 H   0  0
    0.1860   -4.0820   -3.2400 H   0  0
   -4.0940   -0.3960   -0.1930 H   0  0
    1.1900   -6.2640   -2.7210 H   0  0
    0.5270   -6.0470   -1.0100 H   0  0
    0.6620   -0.4670    0.1760 H   0  0
   -2.7850    3.7480   -0.2320 H   0  0
   -0.4610    4.3890   -0.0680 H   0  0
   -3.8420    1.8340   -2.4140 H   0  0
   -4.8220    3.0650   -1.6250 H   0  0
   -5.3400    1.3810   -1.6070 H   0  0
   -4.1540    1.9730    1.9020 H   0  0
   -5.5230    1.4630    0.9180 H   0  0
   -5.0060    3.1470    0.9000 H   0  0
    1.8830    3.6820    0.1390 H   0  0
    3.5100    2.3870   -1.3460 H   0  0
    4.8750   -0.8890    2.1370 H   0  0
    1.8870   -1.7360    3.5060 H   0  0
    3.2050   -2.1520    2.2750 H   0  0
    3.5080   -1.0550    3.6190 H   0  0
    6.5630    0.0550    0.5880 H   0  0
  1  2  1  0
  1  3  1  0
  2  4  1  0
  3  5  1  0
  4  6  1  0
  4  7  2  0
  5  8  2  0
  6  9  2  0
  6 10  1  0
  7 11  1  0
  9 12  1  0
  9 13  1  0
 10 14  2  0
 11 15  1  0
 11 16  1  0
 13 17  2  0
 14 18  1  0
 18 19  2  0
 18 20  1  0
 19 21  1  0
 19 22  1  0
 20 23  2  0
 21 24  1  0
 22 25  2  0
 23 26  1  0
 11 12  1  0
 14 17  1  0
 23 25  1  0
  2 27  1  0
  2 28  1  0
  3 29  1  0
  3 30  1  0
  5 31  1  0
  7 32  1  0
  8 33  1  0
  8 34  1  0
 10 35  1  0
 12 36  1  0
 13 37  1  0
 15 38  1  0
 15 39  1  0
 15 40  1  0
 16 41  1  0
 16 42  1  0
 16 43  1  0
 17 44  1  0
 20 45  1  0
 22 46  1  0
 24 47  1  0
 24 48  1  0
 24 49  1  0
 25 50  1  0
M  END
> <Name>
CHEMBL206278

> <IC50 nM>
190

> <Molecule_ChEMBL_ID>
CHEMBL206278

> <Smiles>
C=CCSCC1=CC(C)(C)Nc2ccc(-c3cc(F)ccc3OC)cc21

$$$$
CHEMBL4171957
  SciTegic08162514323D

 81 86  0  0  1  0            999 V2000
   -4.5960   -0.7310    3.6760 O   0  0
   -3.9730   -0.3970    2.6860 C   0  0
   -4.0100    1.0060    2.2440 C   0  0
   -3.1490   -1.4080    1.9220 C   0  0
   -3.1080    1.5040    1.3830 C   0  0
   -2.2440   -0.8420    0.8150 C   0  0
   -2.0270    0.6600    0.8320 C   0  0
   -3.1450    2.9590    0.9750 C   0  0
   -0.8830    1.2280    0.3710 C   0  0
   -1.7540    3.5490    1.2010 C   0  0
    0.2930    0.4060   -0.1680 C   0  0  1  0  0  0
   -0.6740    2.7440    0.4430 C   0  0  1  0  0  0
   -0.0880   -0.4820   -1.3100 C   0  0
    1.5550    1.2270   -0.5430 C   0  0
    0.6620    2.9220    1.1740 C   0  0  1  0  0  0
   -0.7660    0.0510   -2.4200 C   0  0
    0.2320   -1.8500   -1.2750 C   0  0
    1.8240    2.5550    0.2250 C   0  0  1  0  0  0
    1.1660    4.2320    1.7850 C   0  0
   -1.1250   -0.7810   -3.4940 C   0  0
   -0.1250   -2.6860   -2.3480 C   0  0
    2.9880    2.6110    1.2560 C   0  0  2  0  0  0
    2.0230    3.6880   -0.8140 C   0  0
    2.6460    3.8960    2.0680 C   0  0
   -0.8050   -2.1520   -3.4610 C   0  0
    4.2600    2.7460    0.6390 O   0  0
    3.0040    1.4120    2.1150 C   0  0
   -1.1520   -2.9670   -4.5060 N   0  0
    2.9800    0.4360    2.8010 C   0  0
   -0.3150   -4.1230   -4.9080 C   0  0
   -2.3870   -2.7360   -5.2970 C   0  0
    2.9180   -0.7730    3.6410 C   0  0
   -1.1800   -5.3690   -5.2010 C   0  0
   -3.1370   -4.0590   -5.5660 C   0  0
    3.0780   -1.9920    2.7420 C   0  0
    1.5570   -0.8220    4.3260 C   0  0
    4.0330   -0.7340    4.6800 C   0  0
   -2.2500   -5.0470   -6.0800 O   0  0
   -4.7970    1.6430    2.6330 H   0  0
   -2.5390   -1.9550    2.6410 H   0  0
   -3.8260   -2.1450    1.4840 H   0  0
   -1.2890   -1.3570    0.8970 H   0  0
   -2.6640   -1.1060   -0.1540 H   0  0
   -3.8830    3.5160    1.5570 H   0  0
   -3.4320    3.0410   -0.0780 H   0  0
   -1.5470    3.5450    2.2770 H   0  0
   -1.7230    4.5920    0.8790 H   0  0
    0.6070   -0.2680    0.6330 H   0  0
   -0.6000    3.1430   -0.5700 H   0  0
    2.4350    0.5900   -0.4900 H   0  0
    1.4760    1.4770   -1.6050 H   0  0
    0.6270    2.2270    2.0060 H   0  0
   -1.0140    1.1020   -2.4530 H   0  0
    0.7540   -2.2660   -0.4240 H   0  0
    0.6230    4.4980    2.6840 H   0  0
    1.0740    5.0680    1.0960 H   0  0
   -1.6450   -0.3540   -4.3400 H   0  0
    0.1290   -3.7360   -2.3030 H   0  0
    2.4370    4.5880   -0.3590 H   0  0
    1.0740    3.9550   -1.2790 H   0  0
    2.7030    3.3690   -1.6030 H   0  0
    3.2560    4.7380    1.7870 H   0  0
    2.7990    3.7660    3.1290 H   0  0
    4.9120    2.8630    1.3500 H   0  0
    0.2440   -3.8420   -5.8030 H   0  0
    0.4240   -4.3580   -4.1390 H   0  0
   -3.0490   -2.0310   -4.7890 H   0  0
   -2.1020   -2.2740   -6.2420 H   0  0
   -1.5980   -5.7810   -4.2790 H   0  0
   -0.5800   -6.1540   -5.6620 H   0  0
   -3.9380   -3.9080   -6.2910 H   0  0
   -3.5940   -4.4430   -4.6520 H   0  0
    4.0410   -1.9980    2.2330 H   0  0
    2.2970   -2.0180    1.9830 H   0  0
    3.0060   -2.9120    3.3240 H   0  0
    1.4000    0.0330    4.9830 H   0  0
    1.4610   -1.7250    4.9300 H   0  0
    0.7540   -0.8300    3.5900 H   0  0
    3.9260    0.1370    5.3280 H   0  0
    4.0230   -1.6370    5.2910 H   0  0
    5.0080   -0.6700    4.1950 H   0  0
  1  2  2  0
  2  3  1  0
  2  4  1  0
  3  5  2  0
  4  6  1  0
  5  7  1  0
  5  8  1  0
  7  9  2  0
  8 10  1  0
  9 11  1  0
  9 12  1  0
 11 13  1  0
 11 14  1  0
 12 15  1  0
 13 16  2  0
 13 17  1  0
 14 18  1  0
 15 19  1  0
 16 20  1  0
 17 21  2  0
 18 22  1  0
 18 23  1  0
 19 24  1  0
 20 25  2  0
 22 26  1  0
 22 27  1  0
 25 28  1  0
 27 29  3  0
 28 30  1  0
 28 31  1  0
 29 32  1  0
 30 33  1  0
 31 34  1  0
 32 35  1  0
 32 36  1  0
 32 37  1  0
 33 38  1  0
  6  7  1  0
 12 10  1  0
 15 18  1  0
 21 25  1  0
 22 24  1  0
 34 38  1  0
  3 39  1  0
  4 40  1  0
  4 41  1  0
  6 42  1  0
  6 43  1  0
  8 44  1  0
  8 45  1  0
 10 46  1  0
 10 47  1  0
 11 48  1  0
 12 49  1  0
 14 50  1  0
 14 51  1  0
 15 52  1  0
 16 53  1  0
 17 54  1  0
 19 55  1  0
 19 56  1  0
 20 57  1  0
 21 58  1  0
 23 59  1  0
 23 60  1  0
 23 61  1  0
 24 62  1  0
 24 63  1  0
 26 64  1  0
 30 65  1  0
 30 66  1  0
 31 67  1  0
 31 68  1  0
 33 69  1  0
 33 70  1  0
 34 71  1  0
 34 72  1  0
 35 73  1  0
 35 74  1  0
 35 75  1  0
 36 76  1  0
 36 77  1  0
 36 78  1  0
 37 79  1  0
 37 80  1  0
 37 81  1  0
M  END
> <Name>
CHEMBL4171957

> <IC50 nM>
13.3

> <Molecule_ChEMBL_ID>
CHEMBL4171957

> <Smiles>
CC(C)(C)C#C[C@]1(O)CC[C@H]2[C@@H]3CCC4=CC(=O)CCC4=C3[C@@H](c3ccc(N4CCOCC4)cc3)C[C@@]21C

$$$$
CHEMBL501745
  SciTegic08162514323D

 85 88  0  0  1  0            999 V2000
   -3.1650    1.2010   -1.3030 F   0  0
   -3.2660   -0.1330   -1.6450 C   0  0  2  0  0  0
   -4.6860   -0.3130   -2.2850 C   0  0  2  0  0  0
   -3.0270   -0.8970   -0.3020 C   0  0  1  0  0  0
   -2.1430   -0.4240   -2.6850 C   0  0  2  0  0  0
   -4.7670    0.5480   -3.5480 C   0  0
   -5.7910    0.0020   -1.2810 C   0  0
   -4.9270   -1.7560   -2.7500 C   0  0
   -3.3410   -2.2710   -0.4290 O   0  0
   -1.5770   -0.7640    0.2300 C   0  0
   -0.7660   -0.1810   -2.0420 C   0  0  1  0  0  0
   -2.2820    0.4590   -3.9430 C   0  0
   -5.7480    1.4510   -3.7560 C   0  0
   -3.6740    0.3490   -4.5770 C   0  0
   -6.7560    0.9130   -1.5090 C   0  0
   -0.5240   -1.1030   -0.8410 C   0  0  1  0  0  0
    0.4640   -0.4500   -2.9060 C   0  0
   -6.8030    1.6740   -2.7610 C   0  0
    0.9320   -0.7270   -0.5090 C   0  0  1  0  0  0
   -0.5670   -2.5880   -1.2360 C   0  0
    1.6070   -0.6570   -1.8980 C   0  0  1  0  0  0
   -7.6900    2.4690   -2.9690 O   0  0
    0.9630    0.5740    0.0650 O   0  0
    1.6060   -1.6440    0.4850 C   0  0
    2.3850   -1.9170   -2.2820 C   0  0
    2.1750    0.9070    0.5010 C   0  0
    0.9570   -2.3090    1.2570 O   0  0
    3.1100   -1.7050    0.4850 C   0  0
    3.1730    0.8530   -0.1790 O   0  0
    2.2460    1.3280    1.7980 N   0  0
    3.5260   -3.0520    0.4850 O   0  0
    3.5020    1.9000    2.3040 C   0  0
    2.9440    2.2970    3.6710 C   0  0
    3.9290    3.1070    1.4680 C   0  0
    4.5920    0.8320    2.3980 C   0  0
    2.9560    1.1400    4.6710 C   0  0
    2.2260    1.9790    5.7200 C   0  0
    4.3690    0.7500    5.1060 C   0  0
    2.1330   -0.0580    4.1970 C   0  0
   -3.7010   -0.5140    0.4660 H   0  0
   -2.2120   -1.4660   -2.9980 H   0  0
   -5.8110   -0.5280   -0.3390 H   0  0
   -5.7630   -1.8230   -3.4470 H   0  0
   -5.1490   -2.4020   -1.9010 H   0  0
   -4.0440   -2.1530   -3.2490 H   0  0
   -4.0180   -2.4720    0.2360 H   0  0
   -1.4300   -1.3860    1.1150 H   0  0
   -1.4330    0.2620    0.5690 H   0  0
   -0.7200    0.8510   -1.7210 H   0  0
   -2.0880    1.5010   -3.6850 H   0  0
   -1.5300    0.1840   -4.6820 H   0  0
   -5.7650    2.0270   -4.6700 H   0  0
   -3.7640    1.0770   -5.3850 H   0  0
   -3.7940   -0.6340   -5.0350 H   0  0
   -7.5110    1.0850   -0.7550 H   0  0
    0.6650    0.3740   -3.5750 H   0  0
    0.3020   -1.3260   -3.5190 H   0  0
   -1.5200   -2.8600   -1.6900 H   0  0
   -0.4200   -3.2240   -0.3630 H   0  0
    0.2210   -2.8190   -1.9530 H   0  0
    2.2860    0.1830   -1.9310 H   0  0
    2.0940   -2.2620   -3.2740 H   0  0
    3.4580   -1.7240   -2.2740 H   0  0
    2.1860   -2.7230   -1.5770 H   0  0
    3.5000   -1.2290    1.3850 H   0  0
    3.5000   -1.2290   -0.4150 H   0  0
    1.4460    1.2440    2.3920 H   0  0
    4.4960   -3.0520    0.4850 H   0  0
    1.9410    2.7110    3.5730 H   0  0
    3.4810    3.1570    4.0710 H   0  0
    4.2480    2.8160    0.4670 H   0  0
    4.7600    3.6300    1.9430 H   0  0
    3.1070    3.8150    1.3640 H   0  0
    4.9810    0.5610    1.4170 H   0  0
    4.2040   -0.0740    2.8650 H   0  0
    5.4270    1.1870    3.0020 H   0  0
    1.2420    2.2960    5.3740 H   0  0
    2.7980    2.8750    5.9640 H   0  0
    2.0880    1.4110    6.6400 H   0  0
    4.7020   -0.1700    4.6260 H   0  0
    4.4110    0.5980    6.1850 H   0  0
    5.0800    1.5360    4.8520 H   0  0
    2.5050   -0.4590    3.2540 H   0  0
    1.0900    0.2250    4.0500 H   0  0
    2.1600   -0.8600    4.9340 H   0  0
  2  1  1  0
  2  3  1  0
  2  4  1  0
  2  5  1  0
  3  6  1  0
  3  7  1  0
  3  8  1  0
  4  9  1  0
  4 10  1  0
  5 11  1  0
  5 12  1  0
  6 13  2  0
  6 14  1  0
  7 15  2  0
 10 16  1  0
 11 17  1  0
 13 18  1  0
 16 19  1  0
 16 20  1  0
 17 21  1  0
 18 22  2  0
 19 23  1  0
 19 24  1  0
 21 25  1  0
 23 26  1  0
 24 27  2  0
 24 28  1  0
 26 29  2  0
 26 30  1  0
 28 31  1  0
 30 32  1  0
 32 33  1  0
 32 34  1  0
 32 35  1  0
 33 36  1  0
 36 37  1  0
 36 38  1  0
 36 39  1  0
 11 16  1  0
 12 14  1  0
 15 18  1  0
 19 21  1  0
  4 40  1  0
  5 41  1  0
  7 42  1  0
  8 43  1  0
  8 44  1  0
  8 45  1  0
  9 46  1  0
 10 47  1  0
 10 48  1  0
 11 49  1  0
 12 50  1  0
 12 51  1  0
 13 52  1  0
 14 53  1  0
 14 54  1  0
 15 55  1  0
 17 56  1  0
 17 57  1  0
 20 58  1  0
 20 59  1  0
 20 60  1  0
 21 61  1  0
 25 62  1  0
 25 63  1  0
 25 64  1  0
 28 65  1  0
 28 66  1  0
 30 67  1  0
 31 68  1  0
 33 69  1  0
 33 70  1  0
 34 71  1  0
 34 72  1  0
 34 73  1  0
 35 74  1  0
 35 75  1  0
 35 76  1  0
 37 77  1  0
 37 78  1  0
 37 79  1  0
 38 80  1  0
 38 81  1  0
 38 82  1  0
 39 83  1  0
 39 84  1  0
 39 85  1  0
M  END
> <Name>
CHEMBL501745

> <IC50 nM>
5.7

> <Molecule_ChEMBL_ID>
CHEMBL501745

> <Smiles>
C[C@H]1C[C@H]2[C@@H]3CCC4=CC(=O)C=C[C@]4(C)[C@@]3(F)[C@@H](O)C[C@]2(C)[C@@]1(OC(=O)NC(C)(C)CC(C)(C)C)C(=O)CO

$$$$
CHEMBL1253898
  SciTegic08162514323D

 48 50  0  0  1  0            999 V2000
   -5.2970    2.9040    1.5000 F   0  0
   -5.0450    1.7190    0.9530 C   0  0
   -3.7190    1.2730    0.8180 C   0  0
   -6.1060    0.9100    0.5100 C   0  0
   -3.4530    0.0170    0.2380 C   0  0
   -5.8400   -0.3420   -0.0680 C   0  0
   -4.5160   -0.7930   -0.2050 C   0  0
   -2.0450   -0.4430    0.1000 C   0  0
   -4.2770   -1.9710   -0.7500 O   0  0
   -1.0550    0.6230    0.5680 C   0  0
   -1.7540   -0.9400   -1.3160 C   0  0
   -2.2030   -1.5840    1.1060 C   0  0
    0.3980    0.1580    0.4790 C   0  0  2  0  0  0
    0.4280   -1.2380    0.6660 O   0  0
    1.1390    0.8120    1.6470 C   0  0
    1.0370    0.4730   -0.8750 C   0  0
    1.2150    2.1640    1.4380 F   0  0
    2.4040    0.2910    1.7340 F   0  0
    0.4610    0.5660    2.8130 F   0  0
    2.5450    0.3610   -0.8110 C   0  0
    3.4060    1.4860   -0.7340 N   0  0
    3.3340   -0.8070   -0.8120 C   0  0
    4.6970    0.9920   -0.6890 C   0  0
    4.6110   -0.3770   -0.7400 C   0  0
    5.9730    1.5860   -0.6090 C   0  0
    5.7850   -1.1840   -0.7130 C   0  0
    7.1490    0.8650   -0.5780 N   0  0
    7.0470   -0.5220   -0.6290 C   0  0
   -2.9040    1.8940    1.1580 H   0  0
   -7.1270    1.2480    0.6110 H   0  0
   -6.6580   -0.9610   -0.4080 H   0  0
   -3.4530   -2.4280   -0.5450 H   0  0
   -1.2930    0.9530    1.5800 H   0  0
   -1.1970    1.5510    0.0140 H   0  0
   -2.6620   -1.2350   -1.8380 H   0  0
   -1.0880   -1.8030   -1.2910 H   0  0
   -1.2680   -0.1600   -1.9040 H   0  0
   -3.2520   -1.7290    1.3650 H   0  0
   -1.8070   -2.5140    0.6970 H   0  0
   -1.6580   -1.3670    2.0240 H   0  0
    0.8010   -1.6270   -0.1410 H   0  0
    0.7600    1.4750   -1.2070 H   0  0
    0.6540   -0.1970   -1.6460 H   0  0
    3.1330    2.4410   -0.7170 H   0  0
    2.9830   -1.8300   -0.8610 H   0  0
    6.0350    2.6640   -0.5700 H   0  0
    5.7290   -2.2620   -0.7520 H   0  0
    7.9510   -1.1130   -0.6070 H   0  0
  1  2  1  0
  2  3  2  0
  2  4  1  0
  3  5  1  0
  4  6  2  0
  5  7  2  0
  5  8  1  0
  7  9  1  0
  8 10  1  0
  8 11  1  0
  8 12  1  0
 10 13  1  0
 13 14  1  0
 13 15  1  0
 13 16  1  0
 15 17  1  0
 15 18  1  0
 15 19  1  0
 16 20  1  0
 20 21  1  0
 20 22  2  0
 21 23  1  0
 22 24  1  0
 23 25  1  0
 24 26  1  0
 25 27  2  0
 26 28  2  0
  6  7  1  0
 23 24  2  0
 27 28  1  0
  3 29  1  0
  4 30  1  0
  6 31  1  0
  9 32  1  0
 10 33  1  0
 10 34  1  0
 11 35  1  0
 11 36  1  0
 11 37  1  0
 12 38  1  0
 12 39  1  0
 12 40  1  0
 14 41  1  0
 16 42  1  0
 16 43  1  0
 21 44  1  0
 22 45  1  0
 25 46  1  0
 26 47  1  0
 28 48  1  0
M  END
> <Name>
CHEMBL1253898

> <IC50 nM>
2.1

> <Molecule_ChEMBL_ID>
CHEMBL1253898

> <Smiles>
CC(C)(C[C@@](O)(Cc1cc2ccncc2[nH]1)C(F)(F)F)c1cc(F)ccc1O

$$$$
CHEMBL428922
  SciTegic08162514323D

 66 70  0  0  0  0            999 V2000
    2.9490   -1.6250   -2.1370 S   0  0
    1.6760   -0.4960   -2.1290 C   0  0
    3.4400   -1.2010   -3.7050 C   0  0
    1.6150    0.2190   -3.3400 C   0  0
    0.7750   -0.3160   -0.9980 C   0  0
    2.6270   -0.1890   -4.2360 C   0  0
    0.6350    1.2560   -3.6390 C   0  0
    1.0450   -0.8220    0.2290 C   0  0
   -0.0430    1.2850   -4.7970 C   0  0
    0.3670    2.3320   -2.6210 C   0  0
    2.2500   -1.3870    0.3650 O   0  0
    0.0920   -0.6880    1.3770 C   0  0
   -1.0370    2.3950   -5.0200 C   0  0
    2.7790   -1.6210    1.5840 C   0  0
   -1.3220   -0.4690    1.2440 C   0  0
    0.6780   -0.7700    2.6780 C   0  0
   -1.5060    2.4770   -6.4730 C   0  0
    2.0700   -1.3160    2.7970 C   0  0
    4.0780   -2.1740    1.6310 C   0  0
   -2.0390    0.0680    2.3520 C   0  0
   -2.1040   -0.8200    0.0060 C   0  0
   -0.0900   -0.3220    3.7910 C   0  0
    2.7320   -1.5660    4.0450 C   0  0
    4.7110   -2.4120    2.8670 C   0  0
   -3.3160    0.5060    2.2090 N   0  0
   -1.4140    0.1310    3.6190 C   0  0
   -3.3440   -0.3160   -0.1560 C   0  0
   -1.5900   -1.7680   -1.0510 C   0  0
    2.1620   -1.3260    5.2330 O   0  0
    4.0430   -2.1020    4.0680 C   0  0
   -3.9840    0.5900    0.8790 C   0  0
    2.8870   -0.5490    6.1740 C   0  0
    4.6560   -2.3240    5.2400 O   0  0
   -3.9040    2.0330    0.3790 C   0  0
   -5.4530    0.1820    1.0350 C   0  0
    4.2740   -1.6620   -4.2190 H   0  0
   -0.1190    0.2580   -1.1800 H   0  0
    2.7660    0.2290   -5.2250 H   0  0
    0.1880    0.4900   -5.4900 H   0  0
   -0.6840    2.4200   -2.3480 H   0  0
    0.6950    3.2970   -3.0080 H   0  0
    0.9320    2.1290   -1.7110 H   0  0
   -1.9320    2.2150   -4.4240 H   0  0
   -0.6090    3.3440   -4.6970 H   0  0
   -2.2420    3.2720   -6.5940 H   0  0
   -0.6640    2.6680   -7.1370 H   0  0
   -1.9690    1.5410   -6.7810 H   0  0
    4.5980   -2.4160    0.7150 H   0  0
    0.2790   -0.2930    4.7990 H   0  0
    5.7050   -2.8340    2.8930 H   0  0
   -3.8380    0.8030    3.0140 H   0  0
   -1.9430    0.5210    4.4790 H   0  0
   -3.9040   -0.5660   -1.0470 H   0  0
   -0.6780   -2.2890   -0.7640 H   0  0
   -1.3830   -1.2190   -1.9710 H   0  0
   -2.3480   -2.5200   -1.2750 H   0  0
    2.3010    0.0840    6.8400 H   0  0
    3.5780    0.0940    5.6270 H   0  0
    3.4790   -1.2250    6.7930 H   0  0
    5.5510   -2.6910    5.2440 H   0  0
   -2.8730    2.3630    0.2520 H   0  0
   -4.3870    2.7130    1.0800 H   0  0
   -4.4060    2.1370   -0.5840 H   0  0
   -5.5530   -0.8440    1.3910 H   0  0
   -5.9770    0.2560    0.0820 H   0  0
   -5.9590    0.8340    1.7460 H   0  0
  1  2  1  0
  1  3  1  0
  2  4  2  0
  2  5  1  0
  3  6  2  0
  4  7  1  0
  5  8  2  0
  7  9  2  0
  7 10  1  0
  8 11  1  0
  8 12  1  0
  9 13  1  0
 11 14  1  0
 12 15  2  0
 12 16  1  0
 13 17  1  0
 14 18  2  0
 14 19  1  0
 15 20  1  0
 15 21  1  0
 16 22  2  0
 18 23  1  0
 19 24  2  0
 20 25  1  0
 20 26  2  0
 21 27  2  0
 21 28  1  0
 23 29  1  0
 23 30  2  0
 25 31  1  0
 29 32  1  0
 30 33  1  0
 31 34  1  0
 31 35  1  0
  4  6  1  0
 16 18  1  0
 22 26  1  0
 24 30  1  0
 27 31  1  0
  3 36  1  0
  5 37  1  0
  6 38  1  0
  9 39  1  0
 10 40  1  0
 10 41  1  0
 10 42  1  0
 13 43  1  0
 13 44  1  0
 17 45  1  0
 17 46  1  0
 17 47  1  0
 19 48  1  0
 22 49  1  0
 24 50  1  0
 25 51  1  0
 26 52  1  0
 27 53  1  0
 28 54  1  0
 28 55  1  0
 28 56  1  0
 32 57  1  0
 32 58  1  0
 32 59  1  0
 33 60  1  0
 34 61  1  0
 34 62  1  0
 34 63  1  0
 35 64  1  0
 35 65  1  0
 35 66  1  0
M  END
> <Name>
CHEMBL428922

> <IC50 nM>
6.1

> <Molecule_ChEMBL_ID>
CHEMBL428922

> <Smiles>
CC/C=C(\C)c1ccsc1/C=C1\Oc2ccc(O)c(OC)c2-c2ccc3c(c21)C(C)=CC(C)(C)N3

$$$$
CHEMBL465920
  SciTegic08162514323D

 52 54  0  0  1  0            999 V2000
   -1.2070   -4.9000   -1.0900 F   0  0
    0.0100   -5.3970   -1.3070 C   0  0
    1.1330   -4.5470   -1.3580 C   0  0
    0.1660   -6.7830   -1.4850 C   0  0
    2.4120   -5.0940   -1.5900 C   0  0
    0.9690   -3.0720   -1.1680 C   0  0
    1.4410   -7.3220   -1.7150 C   0  0
    3.4880   -4.3090   -1.6410 F   0  0
    2.5650   -6.4790   -1.7700 C   0  0
    0.2480   -2.6330   -0.3030 O   0  0
    1.6520   -2.2250   -1.9920 N   0  0
    1.5020   -0.7710   -1.8180 C   0  0
    0.4180   -0.2190   -2.7440 C   0  0  2  0  0  0
   -0.8200   -0.7620   -2.3480 O   0  0
    0.6520   -0.5820   -4.2110 C   0  0
    0.3140    1.3050   -2.6840 C   0  0
   -0.2150    0.1250   -5.0020 F   0  0
    0.4390   -1.9260   -4.3890 F   0  0
    1.9430   -0.2750   -4.5570 F   0  0
    0.1680    1.7700   -1.2970 N   0  0
    0.2030    3.1090   -1.0310 C   0  0
    0.3500    3.9060   -1.9280 O   0  0
    0.0590    3.5740    0.3440 C   0  0
   -0.8670    3.0960    1.3030 C   0  0
    0.8260    4.5860    0.9550 C   0  0
   -0.6350    3.8150    2.4300 N   0  0
   -1.8670    2.0310    1.0880 N   0  0
    0.3570    4.6820    2.2110 N   0  0
   -1.2950    3.6950    3.6110 C   0  0
   -0.5740    3.5290    4.8090 C   0  0
   -2.7030    3.7340    3.6410 C   0  0
   -1.2580    3.4040    6.0310 C   0  0
   -3.3850    3.6090    4.8630 C   0  0
   -2.6620    3.4430    6.0590 C   0  0
   -3.3090    3.3240    7.2170 F   0  0
   -0.6930   -7.4360   -1.4420 H   0  0
    1.5610   -8.3870   -1.8540 H   0  0
    3.5430   -6.8990   -1.9470 H   0  0
    2.2500   -2.5880   -2.7070 H   0  0
    1.2660   -0.5590   -0.7760 H   0  0
    2.4590   -0.2870   -2.0120 H   0  0
   -0.8960   -0.6310   -1.3890 H   0  0
    1.1950    1.7700   -3.1270 H   0  0
   -0.5350    1.6560   -3.2700 H   0  0
    0.0470    1.1170   -0.5490 H   0  0
    1.6290    5.1840    0.5410 H   0  0
   -1.9750    1.6230    0.1820 H   0  0
   -2.4370    1.7210    1.8480 H   0  0
    0.5060    3.4960    4.8090 H   0  0
   -3.2750    3.8590    2.7320 H   0  0
   -0.6990    3.2770    6.9470 H   0  0
   -4.4650    3.6390    4.8810 H   0  0
  1  2  1  0
  2  3  2  0
  2  4  1  0
  3  5  1  0
  3  6  1  0
  4  7  2  0
  5  8  1  0
  5  9  2  0
  6 10  2  0
  6 11  1  0
 11 12  1  0
 12 13  1  0
 13 14  1  0
 13 15  1  0
 13 16  1  0
 15 17  1  0
 15 18  1  0
 15 19  1  0
 16 20  1  0
 20 21  1  0
 21 22  2  0
 21 23  1  0
 23 24  2  0
 23 25  1  0
 24 26  1  0
 24 27  1  0
 25 28  2  0
 26 29  1  0
 29 30  2  0
 29 31  1  0
 30 32  1  0
 31 33  2  0
 32 34  2  0
 34 35  1  0
  7  9  1  0
 26 28  1  0
 33 34  1  0
  4 36  1  0
  7 37  1  0
  9 38  1  0
 11 39  1  0
 12 40  1  0
 12 41  1  0
 14 42  1  0
 16 43  1  0
 16 44  1  0
 20 45  1  0
 25 46  1  0
 27 47  1  0
 27 48  1  0
 30 49  1  0
 31 50  1  0
 32 51  1  0
 33 52  1  0
M  END
> <Name>
CHEMBL465920

> <IC50 nM>
398.11

> <Molecule_ChEMBL_ID>
CHEMBL465920

> <Smiles>
Nc1c(C(=O)NCC(O)(CNC(=O)c2c(F)cccc2F)C(F)(F)F)cnn1-c1ccc(F)cc1

$$$$
CHEMBL3578274
  SciTegic08162514323D

 55 59  0  0  1  0            999 V2000
    7.0670    1.0350    1.3460 F   0  0
    5.7500    1.0510    1.5430 C   0  0
    5.0960   -0.1040    2.0080 C   0  0
    5.0120    2.2210    1.2850 C   0  0
    3.7050   -0.0880    2.2170 C   0  0
    3.6230    2.2340    1.4920 C   0  0
    2.9670    1.0800    1.9590 C   0  0
    1.4980    1.0980    2.1800 C   0  0  2  0  0  0
    0.7680    0.7440    0.9650 N   0  0
    1.0310    2.4280    2.7690 C   0  0
    0.7050    1.4960   -0.2050 C   0  0
    0.0100   -0.4060    0.7690 C   0  0
    1.2810    2.5530   -0.3130 O   0  0
   -0.0410    0.9240   -1.1510 O   0  0
   -0.1520   -1.2790    1.5900 O   0  0
   -0.5410   -0.3220   -0.6390 C   0  0  2  0  0  0
   -2.0550   -0.2930   -0.6600 C   0  0
   -0.0230   -1.4590   -1.5120 C   0  0
   -2.8400   -1.4260   -0.5780 N   0  0
   -2.7990    0.8650   -0.7620 N   0  0
    1.4570   -1.4160   -1.6450 C   0  0
   -4.0960   -0.9490   -0.6290 C   0  0
   -4.0720    0.4320   -0.7400 C   0  0
    2.2680   -2.1150   -0.7330 C   0  0
    2.0490   -0.6740   -2.6840 C   0  0
   -5.3200   -1.6560   -0.5860 C   0  0
   -5.2730    1.1780   -0.8130 C   0  0
    3.6660   -2.0740   -0.8600 C   0  0
    3.4490   -0.6350   -2.8110 C   0  0
   -6.5350   -0.9300   -0.6560 C   0  0
   -6.5120    0.4860   -0.7700 C   0  0
    4.2580   -1.3340   -1.8970 C   0  0
   -7.8220   -1.6430   -0.6130 C   0  0
   -7.5980   -2.9750   -0.3890 F   0  0
   -8.4730   -1.4820   -1.8110 F   0  0
   -8.5940   -1.1310    0.3980 F   0  0
    5.6580   -1.0040    2.2070 H   0  0
    5.5120    3.1090    0.9280 H   0  0
    3.2090   -0.9790    2.5740 H   0  0
    3.0630    3.1370    1.2930 H   0  0
    1.3970    0.2950    2.9100 H   0  0
    1.1190    3.2290    2.0330 H   0  0
   -0.0040    2.3610    3.1010 H   0  0
    1.6410    2.7010    3.6310 H   0  0
   -0.4780   -1.4220   -2.5020 H   0  0
   -0.3220   -2.4240   -1.1060 H   0  0
   -2.4690    1.8010   -0.8340 H   0  0
    1.8190   -2.6860    0.0680 H   0  0
    1.4340   -0.1350   -3.3890 H   0  0
   -5.3280   -2.7340   -0.5000 H   0  0
   -5.2540    2.2540   -0.8970 H   0  0
    4.2870   -2.6110   -0.1580 H   0  0
    3.9030   -0.0640   -3.6080 H   0  0
   -7.4360    1.0430   -0.8220 H   0  0
    5.3320   -1.3030   -1.9940 H   0  0
  1  2  1  0
  2  3  2  0
  2  4  1  0
  3  5  1  0
  4  6  2  0
  5  7  2  0
  7  8  1  0
  8  9  1  0
  8 10  1  0
  9 11  1  0
  9 12  1  0
 11 13  2  0
 11 14  1  0
 12 15  2  0
 12 16  1  0
 16 17  1  0
 16 18  1  0
 17 19  2  0
 17 20  1  0
 18 21  1  0
 19 22  1  0
 20 23  1  0
 21 24  2  0
 21 25  1  0
 22 26  1  0
 23 27  1  0
 24 28  1  0
 25 29  2  0
 26 30  2  0
 27 31  2  0
 28 32  2  0
 30 33  1  0
 33 34  1  0
 33 35  1  0
 33 36  1  0
  6  7  1  0
 14 16  1  0
 22 23  2  0
 29 32  1  0
 30 31  1  0
  3 37  1  0
  4 38  1  0
  5 39  1  0
  6 40  1  0
  8 41  1  0
 10 42  1  0
 10 43  1  0
 10 44  1  0
 18 45  1  0
 18 46  1  0
 20 47  1  0
 24 48  1  0
 25 49  1  0
 26 50  1  0
 27 51  1  0
 28 52  1  0
 29 53  1  0
 31 54  1  0
 32 55  1  0
M  END
> <Name>
CHEMBL3578274

> <IC50 nM>
3400

> <Molecule_ChEMBL_ID>
CHEMBL3578274

> <Smiles>
C[C@H](c1ccc(F)cc1)N1C(=O)O[C@](Cc2ccccc2)(c2nc3cc(C(F)(F)F)ccc3[nH]2)C1=O

$$$$
CHEMBL3578285
  SciTegic08162514323D

 65 70  0  0  1  0            999 V2000
    5.2760    3.4830   -5.7030 F   0  0
    4.2770    3.4840   -4.8220 C   0  0
    4.5310    3.7830   -3.4730 C   0  0
    2.9690    3.1860   -5.2420 C   0  0
    3.4770    3.7850   -2.5430 C   0  0
    1.9140    3.1880   -4.3120 C   0  0
    2.1680    3.4880   -2.9610 C   0  0
    1.0550    3.4900   -1.9780 C   0  0  2  0  0  0
    0.5410    2.1430   -1.7420 N   0  0
   -0.0510    4.4670   -2.3810 C   0  0
   -0.4800    1.5160   -2.4470 C   0  0
    0.9920    1.2540   -0.7710 C   0  0
   -1.0570    2.0680   -3.3550 O   0  0
   -0.7360    0.2830   -2.0080 O   0  0
    1.8790    1.4790    0.0220 O   0  0
    0.1620   -0.0040   -0.9240 C   0  0  2  0  0  0
   -0.6430   -0.3100    0.3200 C   0  0
    1.0250   -1.2030   -1.3030 C   0  0
   -0.6210   -1.5350    0.9610 N   0  0
   -1.4800    0.5980    0.9380 N   0  0
    2.0450   -0.8420   -2.3220 C   0  0
   -1.4630   -1.3690    1.9960 C   0  0
   -1.9790   -0.0840    1.9830 C   0  0
    3.4040   -0.7710   -1.9630 C   0  0
    1.6540   -0.5700   -3.6440 C   0  0
   -1.8320   -2.2970    2.9980 C   0  0
   -2.8950    0.3420    2.9770 C   0  0
    4.3690   -0.4300   -2.9260 C   0  0
    2.6190   -0.2280   -4.6070 C   0  0
   -2.7500   -1.8910    4.0040 C   0  0
   -3.2790   -0.5700    3.9920 C   0  0
    3.9770   -0.1580   -4.2480 C   0  0
   -3.1150   -2.7540    4.9670 N   0  0
   -2.1720   -3.7600    5.5160 C   0  0
   -4.4840   -2.7520    5.5410 C   0  0
   -2.8460   -5.1410    5.6660 C   0  0
   -5.0330   -4.1880    5.6900 C   0  0
   -4.0880   -5.0220    6.3500 O   0  0
    5.5350    4.0120   -3.1460 H   0  0
    2.7700    2.9550   -6.2770 H   0  0
    3.6800    4.0160   -1.5060 H   0  0
    0.9120    2.9590   -4.6410 H   0  0
    1.5740    3.8400   -1.0860 H   0  0
   -0.3910    4.2680   -3.3960 H   0  0
   -0.8980    4.3930   -1.6990 H   0  0
    0.3140    5.4940   -2.3480 H   0  0
    0.4060   -2.0180   -1.6820 H   0  0
    1.5200   -1.6150   -0.4240 H   0  0
   -1.6660    1.5370    0.6700 H   0  0
    3.7110   -0.9780   -0.9490 H   0  0
    0.6130   -0.6210   -3.9280 H   0  0
   -1.4160   -3.2950    2.9860 H   0  0
   -3.2950    1.3440    2.9630 H   0  0
    5.4120   -0.3750   -2.6500 H   0  0
    2.3180   -0.0190   -5.6230 H   0  0
   -3.9790   -0.2440    4.7500 H   0  0
    4.7190    0.1040   -4.9880 H   0  0
   -1.2830   -3.8480    4.8870 H   0  0
   -1.8300   -3.4080    6.4900 H   0  0
   -5.1640   -2.1560    4.9300 H   0  0
   -4.4410   -2.2710    6.5200 H   0  0
   -2.2090   -5.8220    6.2290 H   0  0
   -3.0290   -5.5960    4.6920 H   0  0
   -5.9570   -4.1890    6.2680 H   0  0
   -5.2580   -4.6230    4.7150 H   0  0
  1  2  1  0
  2  3  2  0
  2  4  1  0
  3  5  1  0
  4  6  2  0
  5  7  2  0
  7  8  1  0
  8  9  1  0
  8 10  1  0
  9 11  1  0
  9 12  1  0
 11 13  2  0
 11 14  1  0
 12 15  2  0
 12 16  1  0
 16 17  1  0
 16 18  1  0
 17 19  2  0
 17 20  1  0
 18 21  1  0
 19 22  1  0
 20 23  1  0
 21 24  2  0
 21 25  1  0
 22 26  1  0
 23 27  1  0
 24 28  1  0
 25 29  2  0
 26 30  2  0
 27 31  2  0
 28 32  2  0
 30 33  1  0
 33 34  1  0
 33 35  1  0
 34 36  1  0
 35 37  1  0
 36 38  1  0
  6  7  1  0
 14 16  1  0
 22 23  2  0
 29 32  1  0
 30 31  1  0
 37 38  1  0
  3 39  1  0
  4 40  1  0
  5 41  1  0
  6 42  1  0
  8 43  1  0
 10 44  1  0
 10 45  1  0
 10 46  1  0
 18 47  1  0
 18 48  1  0
 20 49  1  0
 24 50  1  0
 25 51  1  0
 26 52  1  0
 27 53  1  0
 28 54  1  0
 29 55  1  0
 31 56  1  0
 32 57  1  0
 34 58  1  0
 34 59  1  0
 35 60  1  0
 35 61  1  0
 36 62  1  0
 36 63  1  0
 37 64  1  0
 37 65  1  0
M  END
> <Name>
CHEMBL3578285

> <IC50 nM>
4900

> <Molecule_ChEMBL_ID>
CHEMBL3578285

> <Smiles>
C[C@H](c1ccc(F)cc1)N1C(=O)O[C@](Cc2ccccc2)(c2nc3cc(N4CCOCC4)ccc3[nH]2)C1=O

$$$$
CHEMBL66582
  SciTegic08162514323D

 57 61  0  0  1  0            999 V2000
   -2.0760    5.5800   -1.1460 S   0  0
   -1.7580    5.7680    0.2600 O   0  0
   -1.1050    6.1910   -2.0390 O   0  0
   -2.0720    3.9880   -1.4370 N   0  0
   -3.6860    6.2870   -1.4730 C   0  0
   -0.9450    3.2790   -1.2750 C   0  0
   -0.9240    1.8920   -1.5510 C   0  0
    0.2380    3.9100   -0.8240 C   0  0
    0.2640    1.1350   -1.3730 C   0  0
    1.4300    3.1680   -0.6540 C   0  0
    1.4590    1.7670   -0.9200 C   0  0
    0.2560   -0.3260   -1.6560 C   0  0  1  0  0  0
    2.6820    0.9330   -0.7620 C   0  0
    1.5610   -0.8340   -1.9770 O   0  0
   -0.2910   -1.0690   -0.4840 C   0  0
    2.6660   -0.3630   -1.3610 C   0  0
    3.8600    1.3480   -0.0620 C   0  0
   -1.3810   -1.9420   -0.6520 C   0  0
    0.2870   -0.9040    0.7870 C   0  0
    3.8170   -1.1840   -1.3320 C   0  0
    3.9400    2.5140    0.5940 O   0  0
    4.9980    0.5100   -0.0290 C   0  0
   -1.8960   -2.6510    0.4490 C   0  0
   -0.2260   -1.6100    1.8890 C   0  0
    4.9830   -0.7480   -0.6700 C   0  0
    5.2250    2.9550    1.0060 C   0  0
   -2.9180   -3.4670    0.2930 O   0  0
   -1.3160   -2.4830    1.7190 C   0  0
   -2.9260   -4.5880    0.9860 C   0  0
   -4.1330   -5.0920    1.5000 C   0  0
   -1.7250   -5.2850    1.2170 C   0  0
   -4.1410   -6.2870    2.2400 C   0  0
   -1.7320   -6.4790    1.9570 C   0  0
   -2.9410   -6.9810    2.4690 C   0  0
   -2.9100    3.5330   -1.7400 H   0  0
   -3.7500    7.3610   -1.2930 H   0  0
   -4.4320    5.8010   -0.8440 H   0  0
   -3.9590    6.1070   -2.5120 H   0  0
   -1.8180    1.3920   -1.9000 H   0  0
    0.2480    4.9670   -0.6030 H   0  0
    2.2930    3.7190   -0.3280 H   0  0
   -0.3850   -0.5390   -2.5140 H   0  0
   -1.8280   -2.0700   -1.6270 H   0  0
    1.1230   -0.2350    0.9220 H   0  0
    3.8030   -2.1510   -1.8160 H   0  0
    5.8910    0.8320    0.4880 H   0  0
    0.2170   -1.4830    2.8650 H   0  0
    5.8620   -1.3770   -0.6480 H   0  0
    5.5470    2.3340    1.8400 H   0  0
    5.8770    2.9690    0.1330 H   0  0
    5.1330    3.9780    1.3690 H   0  0
   -1.7070   -3.0240    2.5680 H   0  0
   -5.0590   -4.5630    1.3260 H   0  0
   -0.7930   -4.9030    0.8240 H   0  0
   -5.0700   -6.6720    2.6330 H   0  0
   -0.8090   -7.0120    2.1330 H   0  0
   -2.9470   -7.8990    3.0370 H   0  0
  1  2  2  0
  1  3  2  0
  1  4  1  0
  1  5  1  0
  4  6  1  0
  6  7  2  0
  6  8  1  0
  7  9  1  0
  8 10  2  0
  9 11  2  0
  9 12  1  0
 11 13  1  0
 12 14  1  0
 12 15  1  0
 13 16  2  0
 13 17  1  0
 15 18  2  0
 15 19  1  0
 16 20  1  0
 17 21  1  0
 17 22  2  0
 18 23  1  0
 19 24  2  0
 20 25  2  0
 21 26  1  0
 23 27  1  0
 23 28  2  0
 27 29  1  0
 29 30  2  0
 29 31  1  0
 30 32  1  0
 31 33  2  0
 32 34  2  0
 10 11  1  0
 14 16  1  0
 22 25  1  0
 24 28  1  0
 33 34  1  0
  4 35  1  0
  5 36  1  0
  5 37  1  0
  5 38  1  0
  7 39  1  0
  8 40  1  0
 10 41  1  0
 12 42  1  0
 18 43  1  0
 19 44  1  0
 20 45  1  0
 22 46  1  0
 24 47  1  0
 25 48  1  0
 26 49  1  0
 26 50  1  0
 26 51  1  0
 28 52  1  0
 30 53  1  0
 31 54  1  0
 32 55  1  0
 33 56  1  0
 34 57  1  0
M  END
> <Name>
CHEMBL66582

> <IC50 nM>
48

> <Molecule_ChEMBL_ID>
CHEMBL66582

> <Smiles>
COc1cccc2c1-c1ccc(NS(C)(=O)=O)cc1C(c1cccc(Oc3ccccc3)c1)O2

$$$$
CHEMBL28157
  SciTegic08162514323D

 41 44  0  0  0  0            999 V2000
   -2.2420   -3.2440    2.7190 S   0  0
   -1.0580   -2.3320    1.9340 C   0  0
    0.1990   -2.5860    2.1480 N   0  0
   -1.3340   -1.1780    0.9510 C   0  0
    0.9690   -1.6310    1.3400 C   0  0
    0.0880   -0.8130    0.6480 C   0  0
   -2.0490   -1.6680   -0.3220 C   0  0
   -2.0880    0.0000    1.6250 C   0  0
    2.3750   -1.5410    1.2640 C   0  0
    0.6680    0.1800   -0.1900 C   0  0
   -3.4980   -2.1190   -0.0410 C   0  0
   -3.5590    0.1190    1.1760 C   0  0
    2.9280   -0.5470    0.4260 C   0  0
    2.0780    0.3200   -0.3070 C   0  0
   -4.2250   -1.2480    1.0000 C   0  0
    2.6450    1.3460   -1.1720 C   0  0
    3.7580    1.0430   -1.9790 C   0  0
    2.0800    2.6330   -1.1950 C   0  0
    4.3090    2.0330   -2.8150 C   0  0
    2.6370    3.6150   -2.0330 C   0  0
    5.3650    1.7400   -3.5780 F   0  0
    3.7480    3.3200   -2.8420 C   0  0
    2.0590    4.9300   -2.0590 C   0  0
    1.5940    5.9920   -2.0800 N   0  0
   -2.0430   -4.2560    3.5780 H   0  0
   -1.5020   -2.4830   -0.8010 H   0  0
   -2.0760   -0.8580   -1.0510 H   0  0
   -1.6090    0.9590    1.4200 H   0  0
   -2.0550   -0.1060    2.7110 H   0  0
    3.0120   -2.2070    1.8260 H   0  0
    0.0100    0.8340   -0.7440 H   0  0
   -4.0530   -2.1040   -0.9810 H   0  0
   -3.5080   -3.1580    0.2870 H   0  0
   -3.6030    0.6540    0.2270 H   0  0
   -4.1170    0.7250    1.8910 H   0  0
    4.0040   -0.4610    0.3520 H   0  0
   -5.2690   -1.1270    0.7190 H   0  0
   -4.2360   -1.7540    1.9650 H   0  0
    4.1970    0.0490   -1.9630 H   0  0
    1.2210    2.8630   -0.5700 H   0  0
    4.1780    4.0660   -3.4830 H   0  0
  1  2  1  0
  2  3  2  0
  2  4  1  0
  3  5  1  0
  4  6  1  0
  4  7  1  0
  4  8  1  0
  5  9  2  0
  6 10  2  0
  7 11  1  0
  8 12  1  0
  9 13  1  0
 10 14  1  0
 11 15  1  0
 14 16  1  0
 16 17  2  0
 16 18  1  0
 17 19  1  0
 18 20  2  0
 19 21  1  0
 19 22  2  0
 20 23  1  0
 23 24  3  0
  5  6  1  0
 12 15  1  0
 13 14  2  0
 20 22  1  0
  1 25  1  0
  7 26  1  0
  7 27  1  0
  8 28  1  0
  8 29  1  0
  9 30  1  0
 10 31  1  0
 11 32  1  0
 11 33  1  0
 12 34  1  0
 12 35  1  0
 13 36  1  0
 15 37  1  0
 15 38  1  0
 17 39  1  0
 18 40  1  0
 22 41  1  0
M  END
> <Name>
CHEMBL28157

> <IC50 nM>
35

> <Molecule_ChEMBL_ID>
CHEMBL28157

> <Smiles>
N#Cc1cc(F)cc(-c2ccc3c(c2)C2(CCCCC2)C(S)=N3)c1

$$$$
CHEMBL103
  SciTegic08162514323D

 53 56  0  0  1  0            999 V2000
   -5.9960    1.1620    1.2990 O   0  0
   -5.0410    0.7620    0.6760 C   0  0
   -4.1100    1.6990    0.0350 C   0  0
   -4.7560   -0.7090    0.5250 C   0  0
   -2.9160    1.3120   -0.4650 C   0  0
   -3.2500   -0.9690    0.6330 C   0  0
   -2.3890   -0.1190   -0.3420 C   0  0  2  0  0  0
   -2.0350    2.3160   -1.1780 C   0  0
   -0.9240   -0.0880    0.1870 C   0  0  2  0  0  0
   -2.4470   -0.7380   -1.7440 C   0  0
   -0.6170    2.3220   -0.6020 C   0  0
   -0.0120    0.9100   -0.5710 C   0  0  1  0  0  0
   -0.2620   -1.4880    0.2480 C   0  0
    1.3280    0.9220    0.1870 C   0  0  1  0  0  0
    1.1310   -1.4550    0.9040 C   0  0
    2.0250   -0.4470    0.1740 C   0  0  2  0  0  0
    2.4280    1.8460   -0.3280 C   0  0
    3.3030   -0.0700    0.9430 C   0  0  2  0  0  0
    2.3610   -0.9240   -1.2500 C   0  0
    3.6800    1.3010    0.3650 C   0  0
    4.4160   -1.0860    0.8810 C   0  0
    5.4730   -0.8200    0.3590 O   0  0
    4.1700   -2.4420    1.4860 C   0  0
   -4.4040    2.7360   -0.0330 H   0  0
   -5.2950   -1.2720    1.2890 H   0  0
   -5.1290   -1.0370   -0.4460 H   0  0
   -3.0610   -2.0330    0.4690 H   0  0
   -2.9450   -0.7620    1.6620 H   0  0
   -2.0020    2.0610   -2.2370 H   0  0
   -2.4590    3.3200   -1.1190 H   0  0
   -0.9850    0.2770    1.2170 H   0  0
   -3.4550   -0.7130   -2.1580 H   0  0
   -2.1250   -1.7790   -1.7190 H   0  0
   -1.7910   -0.2030   -2.4300 H   0  0
   -0.6470    2.7320    0.4080 H   0  0
    0.0140    2.9900   -1.1920 H   0  0
    0.1350    0.5700   -1.5960 H   0  0
   -0.8830   -2.1800    0.8140 H   0  0
   -0.1780   -1.8990   -0.7580 H   0  0
    1.1190    1.2030    1.2150 H   0  0
    1.0310   -1.1720    1.9530 H   0  0
    1.5780   -2.4510    0.8870 H   0  0
    2.2360    2.8790   -0.0780 H   0  0
    2.5180    1.7730   -1.4030 H   0  0
    3.0410    0.0600    1.9840 H   0  0
    3.0370   -0.2360   -1.7600 H   0  0
    1.4570   -1.0080   -1.8520 H   0  0
    2.8400   -1.9020   -1.2250 H   0  0
    3.9940    1.9590    1.1600 H   0  0
    4.4940    1.2320   -0.3400 H   0  0
    5.1210   -2.9320    1.6970 H   0  0
    3.5640   -2.3420    2.3870 H   0  0
    3.6230   -3.0680    0.7830 H   0  0
  1  2  2  0
  2  3  1  0
  2  4  1  0
  3  5  2  0
  4  6  1  0
  5  7  1  0
  5  8  1  0
  7  9  1  0
  7 10  1  0
  8 11  1  0
  9 12  1  0
  9 13  1  0
 12 14  1  0
 13 15  1  0
 14 16  1  0
 14 17  1  0
 16 18  1  0
 16 19  1  0
 17 20  1  0
 18 21  1  0
 21 22  2  0
 21 23  1  0
  6  7  1  0
 12 11  1  0
 15 16  1  0
 18 20  1  0
  3 24  1  0
  4 25  1  0
  4 26  1  0
  6 27  1  0
  6 28  1  0
  8 29  1  0
  8 30  1  0
  9 31  1  0
 10 32  1  0
 10 33  1  0
 10 34  1  0
 11 35  1  0
 11 36  1  0
 12 37  1  0
 13 38  1  0
 13 39  1  0
 14 40  1  0
 15 41  1  0
 15 42  1  0
 17 43  1  0
 17 44  1  0
 18 45  1  0
 19 46  1  0
 19 47  1  0
 19 48  1  0
 20 49  1  0
 20 50  1  0
 23 51  1  0
 23 52  1  0
 23 53  1  0
M  END
> <Name>
CHEMBL103

> <IC50 nM>
1000

> <Molecule_ChEMBL_ID>
CHEMBL103

> <Smiles>
CC(=O)[C@H]1CC[C@H]2[C@@H]3CCC4=CC(=O)CC[C@]4(C)[C@H]3CC[C@]12C

$$$$
CHEMBL1257453
  SciTegic08162514323D

 52 54  0  0  1  0            999 V2000
   -1.0020   -5.6500    1.7520 F   0  0
   -1.7270   -4.7970    1.0330 C   0  0
   -1.0960   -3.7480    0.3400 C   0  0
   -3.1230   -4.9410    0.9670 C   0  0
   -1.8620   -2.8460   -0.4200 C   0  0
   -3.8870   -4.0390    0.2090 C   0  0
   -3.2620   -2.9880   -0.4860 C   0  0
   -1.1840   -1.7400   -1.1480 C   0  0
   -3.9890   -2.1480   -1.1950 O   0  0
    0.1420   -1.3590   -0.4900 C   0  0
   -2.1140   -0.5410   -1.3420 C   0  0
   -0.9940   -2.5510   -2.4320 C   0  0
   -0.0490   -0.6330    0.8420 C   0  0  1  0  0  0
   -1.2350   -1.1030    1.4380 O   0  0
    1.1270   -1.0370    1.7310 C   0  0
   -0.1660    0.8830    0.6740 C   0  0
    1.2750   -0.1190    2.7400 F   0  0
    2.2750   -1.0800    0.9830 F   0  0
    0.8880   -2.2730    2.2720 F   0  0
    1.0820    1.4550    0.1470 N   0  0
    1.2580    2.7890    0.1330 C   0  0
    2.5510    3.4040    0.1190 C   0  0
    0.1050    3.6150    0.1330 C   0  0
    2.6660    4.8380    0.1060 C   0  0
    3.7540    2.6350    0.1170 C   0  0
    0.2210    5.0220    0.1170 C   0  0
    3.9040    5.4510    0.0920 N   0  0
    1.4920    5.6310    0.1060 C   0  0
    5.0120    3.2850    0.1040 C   0  0
    5.0580    4.6970    0.0920 C   0  0
   -0.0220   -3.6390    0.3930 H   0  0
   -3.6120   -5.7440    1.4980 H   0  0
   -4.9610   -4.1520    0.1600 H   0  0
   -4.9480   -2.2640   -1.2280 H   0  0
    0.7540   -0.7680   -1.1700 H   0  0
    0.7730   -2.2380   -0.3610 H   0  0
   -2.8460   -0.7170   -2.1290 H   0  0
   -1.5430    0.3500   -1.6090 H   0  0
   -2.6560   -0.3220   -0.4220 H   0  0
   -1.9570   -2.8710   -2.8300 H   0  0
   -0.4750   -1.9610   -3.1860 H   0  0
   -0.4010   -3.4430   -2.2380 H   0  0
   -1.3130   -0.6720    2.3010 H   0  0
   -0.4060    1.3590    1.6250 H   0  0
   -0.9870    1.1330    0.0000 H   0  0
    1.7990    0.8520   -0.2010 H   0  0
   -0.8870    3.1840    0.1430 H   0  0
    3.7380    1.5550    0.1270 H   0  0
   -0.6700    5.6350    0.1170 H   0  0
    1.5550    6.7090    0.0940 H   0  0
    5.9260    2.7090    0.1040 H   0  0
    6.0170    5.1950    0.0820 H   0  0
  1  2  1  0
  2  3  2  0
  2  4  1  0
  3  5  1  0
  4  6  2  0
  5  7  2  0
  5  8  1  0
  7  9  1  0
  8 10  1  0
  8 11  1  0
  8 12  1  0
 10 13  1  0
 13 14  1  0
 13 15  1  0
 13 16  1  0
 15 17  1  0
 15 18  1  0
 15 19  1  0
 16 20  1  0
 20 21  1  0
 21 22  2  0
 21 23  1  0
 22 24  1  0
 22 25  1  0
 23 26  2  0
 24 27  1  0
 24 28  2  0
 25 29  2  0
 27 30  2  0
  6  7  1  0
 26 28  1  0
 29 30  1  0
  3 31  1  0
  4 32  1  0
  6 33  1  0
  9 34  1  0
 10 35  1  0
 10 36  1  0
 11 37  1  0
 11 38  1  0
 11 39  1  0
 12 40  1  0
 12 41  1  0
 12 42  1  0
 14 43  1  0
 16 44  1  0
 16 45  1  0
 20 46  1  0
 23 47  1  0
 25 48  1  0
 26 49  1  0
 28 50  1  0
 29 51  1  0
 30 52  1  0
M  END
> <Name>
CHEMBL1257453

> <IC50 nM>
1

> <Molecule_ChEMBL_ID>
CHEMBL1257453

> <Smiles>
CC(C)(CC(O)(CNc1cccc2ncccc12)C(F)(F)F)c1cc(F)ccc1O

$$$$
CHEMBL4081430
  SciTegic08162514323D

 52 55  0  0  0  0            999 V2000
    6.1620   -5.0330   -2.4240 Br  0  0
    5.2170   -3.4820   -1.9220 C   0  0
    4.8790   -2.5180   -2.8890 C   0  0
    4.8440   -3.2870   -0.5780 C   0  0
    4.1720   -1.3610   -2.5140 C   0  0
    4.1390   -2.1290   -0.2050 C   0  0
    3.8010   -1.1660   -1.1720 C   0  0
    3.0530    0.0550   -0.7760 C   0  0
    1.6090   -0.0980   -1.0020 N   0  0
    1.0370   -0.2600   -2.5100 S   0  0
    0.7460   -0.1000    0.0600 C   0  0
    1.6520    0.7730   -3.3240 O   0  0
    1.3590   -1.6050   -2.9550 O   0  0
   -0.6760   -0.0610   -2.5780 C   0  0
    0.9180   -1.0250    1.1070 C   0  0
   -0.3180    0.8220    0.1090 C   0  0
   -1.2230    1.0920   -3.1680 C   0  0
   -1.5180   -1.0530   -2.0450 C   0  0
    0.0310   -1.0270    2.1970 C   0  0
   -1.2030    0.8160    1.2010 C   0  0
   -2.6170    1.2580   -3.2270 C   0  0
   -2.9120   -0.8930   -2.1000 C   0  0
   -1.0310   -0.1070    2.2480 C   0  0
   -3.4570    0.2640   -2.6920 C   0  0
   -1.8610   -0.1090    3.2710 O   0  0
   -4.8870    0.4300   -2.7500 C   0  0
   -2.3190    1.0490    3.7010 C   0  0
   -6.0370    0.5630   -2.7970 N   0  0
   -3.6410    1.1600    4.1660 C   0  0
   -1.4830    2.1820    3.6990 C   0  0
   -4.1270    2.3950    4.6250 C   0  0
   -1.9690    3.4180    4.1560 C   0  0
   -3.2910    3.5250    4.6210 C   0  0
    5.1560   -2.6500   -3.9260 H   0  0
    5.0940   -4.0180    0.1780 H   0  0
    3.9140   -0.6250   -3.2620 H   0  0
    3.8570   -1.9840    0.8280 H   0  0
    3.4180    0.9060   -1.3500 H   0  0
    3.2300    0.2640    0.2790 H   0  0
    1.7280   -1.7400    1.0880 H   0  0
   -0.4670    1.5390   -0.6860 H   0  0
   -0.5720    1.8520   -3.5760 H   0  0
   -1.0940   -1.9370   -1.5920 H   0  0
    0.1680   -1.7380    2.9980 H   0  0
   -2.0180    1.5250    1.2340 H   0  0
   -3.0260    2.1490   -3.6820 H   0  0
   -3.5490   -1.6620   -1.6860 H   0  0
   -4.2850    0.2930    4.1700 H   0  0
   -0.4670    2.1040    3.3440 H   0  0
   -5.1450    2.4770    4.9800 H   0  0
   -1.3260    4.2850    4.1540 H   0  0
   -3.6640    4.4750    4.9730 H   0  0
  1  2  1  0
  2  3  2  0
  2  4  1  0
  3  5  1  0
  4  6  2  0
  5  7  2  0
  7  8  1  0
  8  9  1  0
  9 10  1  0
  9 11  1  0
 10 12  2  0
 10 13  2  0
 10 14  1  0
 11 15  2  0
 11 16  1  0
 14 17  2  0
 14 18  1  0
 15 19  1  0
 16 20  2  0
 17 21  1  0
 18 22  2  0
 19 23  2  0
 21 24  2  0
 23 25  1  0
 24 26  1  0
 25 27  1  0
 26 28  3  0
 27 29  2  0
 27 30  1  0
 29 31  1  0
 30 32  2  0
 31 33  2  0
  6  7  1  0
 20 23  1  0
 22 24  1  0
 32 33  1  0
  3 34  1  0
  4 35  1  0
  5 36  1  0
  6 37  1  0
  8 38  1  0
  8 39  1  0
 15 40  1  0
 16 41  1  0
 17 42  1  0
 18 43  1  0
 19 44  1  0
 20 45  1  0
 21 46  1  0
 22 47  1  0
 29 48  1  0
 30 49  1  0
 31 50  1  0
 32 51  1  0
 33 52  1  0
M  END
> <Name>
CHEMBL4081430

> <IC50 nM>
7870

> <Molecule_ChEMBL_ID>
CHEMBL4081430

> <Smiles>
N#Cc1ccc(S(=O)(=O)N(Cc2ccc(Br)cc2)c2ccc(Oc3ccccc3)cc2)cc1

$$$$
CHEMBL1254652
  SciTegic08162514323D

 51 53  0  0  1  0            999 V2000
    5.7930   -2.0450    2.0470 F   0  0
    5.0980   -1.0620    1.4790 C   0  0
    3.8520   -1.3320    0.8890 C   0  0
    5.6090    0.2460    1.4690 C   0  0
    3.1170   -0.2930    0.2870 C   0  0
    4.8770    1.2830    0.8690 C   0  0
    3.6290    1.0200    0.2780 C   0  0
    1.7990   -0.5900   -0.3340 C   0  0
    2.9490    2.0000   -0.2830 O   0  0
    0.9920    0.0200    0.8130 C   0  0
    1.5720   -2.0960   -0.4800 C   0  0
    1.6150    0.1640   -1.6520 C   0  0
    3.6060    3.2460   -0.4670 C   0  0
   -0.4980   -0.3120    0.7290 C   0  0  1  0  0  0
   -0.6680   -1.6680    1.0780 O   0  0
   -1.1950    0.5450    1.7830 C   0  0
   -1.0700   -0.1050   -0.6740 C   0  0
   -1.2680    1.8420    1.3440 F   0  0
   -0.4840    0.4980    2.9550 F   0  0
   -2.4630    0.0640    1.9980 F   0  0
   -2.5820   -0.1990   -0.6680 C   0  0
   -3.4320    0.9400   -0.6740 N   0  0
   -3.3850   -1.3550   -0.6580 C   0  0
   -4.7380    0.4710   -0.6640 C   0  0
   -4.6470   -0.8830   -0.6560 C   0  0
   -5.8180    1.3070   -0.6640 N   0  0
   -5.8770   -1.5920   -0.6480 C   0  0
   -7.0270    0.6110   -0.6540 C   0  0
   -7.0900   -0.8260   -0.6460 C   0  0
    3.4590   -2.3380    0.8970 H   0  0
    6.5680    0.4590    1.9220 H   0  0
    5.2740    2.2890    0.8630 H   0  0
    1.1450    1.0980    0.8600 H   0  0
    1.4020   -0.2850    1.7760 H   0  0
    2.3950   -2.5800   -1.0060 H   0  0
    0.6560   -2.2950   -1.0370 H   0  0
    1.4770   -2.5660    0.4960 H   0  0
    2.5630    0.3160   -2.1680 H   0  0
    1.1720    1.1450   -1.4740 H   0  0
    0.9530   -0.3850   -2.3220 H   0  0
    3.7500    3.7030    0.5140 H   0  0
    4.5060    3.0740   -1.0570 H   0  0
    2.9470    3.8970   -1.0430 H   0  0
   -1.0020   -2.1270    0.2930 H   0  0
   -0.6640   -0.8420   -1.3690 H   0  0
   -0.7680    0.8610   -1.0740 H   0  0
   -3.1390    1.8910   -0.6810 H   0  0
   -3.0590   -2.3870   -0.6520 H   0  0
   -5.9040   -2.6720   -0.6420 H   0  0
   -7.9490    1.1740   -0.6520 H   0  0
   -8.0470   -1.3280   -0.6390 H   0  0
  1  2  1  0
  2  3  2  0
  2  4  1  0
  3  5  1  0
  4  6  2  0
  5  7  2  0
  5  8  1  0
  7  9  1  0
  8 10  1  0
  8 11  1  0
  8 12  1  0
  9 13  1  0
 10 14  1  0
 14 15  1  0
 14 16  1  0
 14 17  1  0
 16 18  1  0
 16 19  1  0
 16 20  1  0
 17 21  1  0
 21 22  1  0
 21 23  2  0
 22 24  1  0
 23 25  1  0
 24 26  1  0
 25 27  1  0
 26 28  2  0
 27 29  2  0
  6  7  1  0
 24 25  2  0
 28 29  1  0
  3 30  1  0
  4 31  1  0
  6 32  1  0
 10 33  1  0
 10 34  1  0
 11 35  1  0
 11 36  1  0
 11 37  1  0
 12 38  1  0
 12 39  1  0
 12 40  1  0
 13 41  1  0
 13 42  1  0
 13 43  1  0
 15 44  1  0
 17 45  1  0
 17 46  1  0
 22 47  1  0
 23 48  1  0
 27 49  1  0
 28 50  1  0
 29 51  1  0
M  END
> <Name>
CHEMBL1254652

> <IC50 nM>
2000

> <Molecule_ChEMBL_ID>
CHEMBL1254652

> <Smiles>
COc1ccc(F)cc1C(C)(C)CC(O)(Cc1cc2cccnc2[nH]1)C(F)(F)F

$$$$
CHEMBL390634
  SciTegic08162514323D

 46 48  0  0  1  0            999 V2000
    2.6190   -1.1620    5.6930 Cl  0  0
    1.8260   -1.5660    4.2230 C   0  0
    0.4360   -1.3710    4.0610 C   0  0
    2.5840   -2.1000    3.1620 C   0  0
   -0.1820   -1.7070    2.8420 C   0  0
   -0.4000   -0.8100    5.1580 C   0  0
    1.9630   -2.4370    1.9450 C   0  0
    0.5800   -2.2400    1.7890 C   0  0
    2.7720   -3.0040    0.8340 C   0  0
   -0.1990   -2.6480    0.3010 S   0  0
   -1.6070   -2.3120    0.4160 O   0  0
    0.0330   -4.0570    0.0350 O   0  0
    0.3870   -1.7930   -1.0960 N   0  0
    0.2170   -0.3510   -1.1350 C   0  0  2  0  0  0
    0.2870    0.1580   -2.5740 C   0  0
    1.2290    0.3340   -0.2170 C   0  0
   -0.1430    1.6090   -2.6660 C   0  0
   -1.4020    2.1000   -2.7030 C   0  0
    0.7030    2.7330   -2.7330 C   0  0
   -1.4280    3.4690   -2.7870 C   0  0
   -2.6020    1.3440   -2.6620 C   0  0
   -0.1090    3.8930   -2.8070 N   0  0
   -2.6460    4.1860   -2.8360 C   0  0
   -3.8400    2.0370   -2.7110 C   0  0
   -3.8610    3.4550   -2.7970 C   0  0
    3.6470   -2.2540    3.2730 H   0  0
   -1.2440   -1.5590    2.7130 H   0  0
   -1.4570   -0.7110    4.9100 H   0  0
   -0.0270    0.1760    5.4320 H   0  0
   -0.3220   -1.4510    6.0370 H   0  0
    2.2830   -3.8110    0.2890 H   0  0
    3.7110   -3.3910    1.2280 H   0  0
    3.0100   -2.2150    0.1210 H   0  0
    1.3870   -2.0040   -1.2340 H   0  0
   -0.7950   -0.2480   -0.7400 H   0  0
   -0.3380   -0.4490   -3.2310 H   0  0
    1.2970    0.0530   -2.9710 H   0  0
    1.1000    0.0020    0.8140 H   0  0
    2.2480    0.1130   -0.5350 H   0  0
    1.1000    1.4160   -0.2380 H   0  0
    1.7850    2.7500   -2.7290 H   0  0
   -2.5840    0.2660   -2.5960 H   0  0
    0.2130    4.8320   -2.8610 H   0  0
   -2.6560    5.2640   -2.9040 H   0  0
   -4.7660    1.4840   -2.6800 H   0  0
   -4.8070    3.9770   -2.8340 H   0  0
  1  2  1  0
  2  3  2  0
  2  4  1  0
  3  5  1  0
  3  6  1  0
  4  7  2  0
  5  8  2  0
  7  9  1  0
  8 10  1  0
 10 11  2  0
 10 12  2  0
 10 13  1  0
 13 14  1  0
 14 15  1  0
 14 16  1  0
 15 17  1  0
 17 18  1  0
 17 19  2  0
 18 20  1  0
 18 21  2  0
 19 22  1  0
 20 23  2  0
 21 24  1  0
 23 25  1  0
  7  8  1  0
 20 22  1  0
 24 25  2  0
  4 26  1  0
  5 27  1  0
  6 28  1  0
  6 29  1  0
  6 30  1  0
  9 31  1  0
  9 32  1  0
  9 33  1  0
 13 34  1  0
 14 35  1  0
 15 36  1  0
 15 37  1  0
 16 38  1  0
 16 39  1  0
 16 40  1  0
 19 41  1  0
 21 42  1  0
 22 43  1  0
 23 44  1  0
 24 45  1  0
 25 46  1  0
M  END
> <Name>
CHEMBL390634

> <IC50 nM>
1800

> <Molecule_ChEMBL_ID>
CHEMBL390634

> <Smiles>
Cc1cc(S(=O)(=O)NC(C)Cc2c[nH]c3ccccc23)c(C)cc1Cl

$$$$
CHEMBL389794
  SciTegic08162514323D

 43 45  0  0  1  0            999 V2000
    4.3770   -2.3460    3.5670 Cl  0  0
    2.6720   -2.1800    3.4380 C   0  0
    1.9920   -2.4840    2.2360 C   0  0
    1.9430   -1.7270    4.5550 C   0  0
    0.5940   -2.3340    2.1680 C   0  0
    2.7300   -2.9650    1.0350 C   0  0
    0.5490   -1.5780    4.4790 C   0  0
   -0.2520   -2.7050    0.7090 S   0  0
   -0.1250   -1.8810    3.2870 C   0  0
   -1.6520   -2.3630    0.8950 O   0  0
   -0.0410   -4.1090    0.4020 O   0  0
    0.2750   -1.8220   -0.6950 N   0  0
    0.0490   -0.3870   -0.7230 C   0  0  2  0  0  0
    0.2260    0.1540   -2.1410 C   0  0
    0.9450    0.3160    0.2950 C   0  0
   -0.2050    1.6050   -2.2320 C   0  0
   -1.4650    2.0960   -2.2700 C   0  0
    0.6410    2.7290   -2.2970 C   0  0
   -1.4900    3.4650   -2.3540 C   0  0
   -2.6620    1.3420   -2.2290 C   0  0
   -0.1700    3.8890   -2.3730 N   0  0
   -2.7070    4.1840   -2.4020 C   0  0
   -3.9010    2.0330   -2.2770 C   0  0
   -3.9240    3.4510   -2.3630 C   0  0
    2.4470   -1.4900    5.4830 H   0  0
    2.1210   -3.5310    0.3300 H   0  0
    3.5590   -3.6040    1.3480 H   0  0
    3.1500   -2.1130    0.5000 H   0  0
   -0.0040   -1.2310    5.3380 H   0  0
   -1.1970   -1.7660    3.2310 H   0  0
    1.2790   -1.9920   -0.8500 H   0  0
   -0.9960   -0.3320   -0.4180 H   0  0
   -0.3460   -0.4400   -2.8550 H   0  0
    1.2640    0.0620   -2.4630 H   0  0
    0.7070   -0.0040    1.3090 H   0  0
    1.9960    0.1050    0.0940 H   0  0
    0.8090    1.3980    0.2460 H   0  0
    1.7230    2.7480   -2.2950 H   0  0
   -2.6470    0.2620   -2.1620 H   0  0
    0.1500    4.8280   -2.4280 H   0  0
   -2.7170    5.2620   -2.4710 H   0  0
   -4.8280    1.4800   -2.2460 H   0  0
   -4.8670    3.9750   -2.4000 H   0  0
  1  2  1  0
  2  3  2  0
  2  4  1  0
  3  5  1  0
  3  6  1  0
  4  7  2  0
  5  8  1  0
  5  9  2  0
  8 10  2  0
  8 11  2  0
  8 12  1  0
 12 13  1  0
 13 14  1  0
 13 15  1  0
 14 16  1  0
 16 17  1  0
 16 18  2  0
 17 19  1  0
 17 20  2  0
 18 21  1  0
 19 22  2  0
 20 23  1  0
 22 24  1  0
  7  9  1  0
 19 21  1  0
 23 24  2  0
  4 25  1  0
  6 26  1  0
  6 27  1  0
  6 28  1  0
  7 29  1  0
  9 30  1  0
 12 31  1  0
 13 32  1  0
 14 33  1  0
 14 34  1  0
 15 35  1  0
 15 36  1  0
 15 37  1  0
 18 38  1  0
 20 39  1  0
 21 40  1  0
 22 41  1  0
 23 42  1  0
 24 43  1  0
M  END
> <Name>
CHEMBL389794

> <IC50 nM>
820

> <Molecule_ChEMBL_ID>
CHEMBL389794

> <Smiles>
Cc1c(Cl)cccc1S(=O)(=O)NC(C)Cc1c[nH]c2ccccc12

$$$$
CHEMBL231802
  SciTegic08162514323D

 49 51  0  0  1  0            999 V2000
   -0.3750    0.7730    1.7680 S   0  0
    0.6800    1.6450    2.2560 O   0  0
   -1.6600    1.0210    2.3980 O   0  0
   -0.5820    1.1660    0.0860 N   0  0
    0.0800   -0.8590    2.0880 C   0  0
    0.5920    1.1410   -0.7700 C   0  0  2  0  0  0
   -0.5860   -1.9120    1.4360 C   0  0
    1.1130   -1.1350    2.9980 C   0  0
    0.2170    1.5180   -2.2030 C   0  0
    1.2890   -0.2170   -0.6800 C   0  0
   -0.2150   -3.2420    1.6950 C   0  0
    1.4840   -2.4650    3.2600 C   0  0
   -0.2130    2.9690   -2.2950 C   0  0
    0.8200   -3.5200    2.6070 C   0  0
   -1.4730    3.4590   -2.3320 C   0  0
    0.6330    4.0920   -2.3590 C   0  0
    1.2110   -4.9280    2.8830 C   0  0
   -1.4980    4.8280   -2.4160 C   0  0
   -2.6720    2.7030   -2.2910 C   0  0
   -0.1780    5.2520   -2.4360 N   0  0
    2.4000   -5.3590    2.0230 C   0  0
   -2.7170    5.5450   -2.4650 C   0  0
   -3.9080    3.3960   -2.3380 C   0  0
    2.0720   -5.3790    0.5290 C   0  0
   -3.9320    4.8140   -2.4260 C   0  0
   -1.0210    2.0940    0.0020 H   0  0
    1.2030    1.9180   -0.3140 H   0  0
   -1.3810   -1.7010    0.7360 H   0  0
    1.6230   -0.3240    3.5000 H   0  0
   -0.5820    0.8770   -2.5740 H   0  0
    1.0550    1.3440   -2.8790 H   0  0
    2.0900   -0.3130   -1.4140 H   0  0
    0.5800   -1.0270   -0.8540 H   0  0
    1.7270   -0.3610    0.3090 H   0  0
   -0.7280   -4.0490    1.1930 H   0  0
    2.2790   -2.6700    3.9610 H   0  0
    1.7150    4.1090   -2.3560 H   0  0
    1.4410   -5.0410    3.9430 H   0  0
    0.3570   -5.5820    2.7150 H   0  0
   -2.6540    1.6250   -2.2250 H   0  0
    0.1430    6.1900   -2.4900 H   0  0
    3.2660   -4.7290    2.2190 H   0  0
    2.7770   -6.3280    2.3480 H   0  0
   -2.7250    6.6230   -2.5310 H   0  0
   -4.8360    2.8440   -2.3090 H   0  0
    2.9240   -5.7360   -0.0470 H   0  0
    1.2150   -6.0240    0.3340 H   0  0
    1.8240   -4.3790    0.1760 H   0  0
   -4.8770    5.3360   -2.4610 H   0  0
  1  2  2  0
  1  3  2  0
  1  4  1  0
  1  5  1  0
  4  6  1  0
  5  7  2  0
  5  8  1  0
  6  9  1  0
  6 10  1  0
  7 11  1  0
  8 12  2  0
  9 13  1  0
 11 14  2  0
 13 15  1  0
 13 16  2  0
 14 17  1  0
 15 18  1  0
 15 19  2  0
 16 20  1  0
 17 21  1  0
 18 22  2  0
 19 23  1  0
 21 24  1  0
 22 25  1  0
 12 14  1  0
 18 20  1  0
 23 25  2  0
  4 26  1  0
  6 27  1  0
  7 28  1  0
  8 29  1  0
  9 30  1  0
  9 31  1  0
 10 32  1  0
 10 33  1  0
 10 34  1  0
 11 35  1  0
 12 36  1  0
 16 37  1  0
 17 38  1  0
 17 39  1  0
 19 40  1  0
 20 41  1  0
 21 42  1  0
 21 43  1  0
 22 44  1  0
 23 45  1  0
 24 46  1  0
 24 47  1  0
 24 48  1  0
 25 49  1  0
M  END
> <Name>
CHEMBL231802

> <IC50 nM>
1600

> <Molecule_ChEMBL_ID>
CHEMBL231802

> <Smiles>
CCCc1ccc(S(=O)(=O)NC(C)Cc2c[nH]c3ccccc23)cc1

$$$$
CHEMBL4438320
  SciTegic08162514323D

 54 58  0  0  1  0            999 V2000
    4.8670   -2.4120   -5.5630 F   0  0
    4.4320   -2.1270   -4.3360 C   0  0
    5.2770   -1.4760   -3.4220 C   0  0
    3.1230   -2.4780   -3.9570 C   0  0
    4.8160   -1.1760   -2.1290 C   0  0
    2.6620   -2.1800   -2.6640 C   0  0
    3.5080   -1.5270   -1.7460 C   0  0
    3.0620   -1.2380   -0.4960 N   0  0
    3.7750   -1.4370    0.6460 N   0  0
    1.8480   -0.7110   -0.1880 C   0  0
    3.1070   -1.0550    1.7680 C   0  0
    1.9240   -0.6010    1.1880 C   0  0
    0.6840   -0.3140   -0.9900 C   0  0
    0.7380    0.0160    1.9180 C   0  0
   -0.4630   -0.0020   -0.3480 C   0  0
   -0.6490   -0.1600    1.1780 C   0  0  2  0  0  0
   -1.7030    0.8870    1.7440 C   0  0  1  0  0  0
   -1.1230   -1.6270    1.4340 C   0  0
   -1.4530    1.1040    3.1250 O   0  0
   -1.5430    2.2290    1.1050 C   0  0
   -3.2010    0.4570    1.7230 C   0  0
   -2.1090   -2.2480    0.4160 C   0  0
   -2.4490    2.6490    0.1150 C   0  0
   -0.4860    3.0720    1.4920 C   0  0
   -3.7270   -0.2220    0.4490 C   0  0
   -3.5570   -1.7480    0.4920 C   0  0
   -2.2990    3.9100   -0.4860 C   0  0
   -0.3380    4.3340    0.8910 C   0  0
   -1.2440    4.7540   -0.0980 C   0  0
    6.2810   -1.2050   -3.7110 H   0  0
    2.4710   -2.9780   -4.6560 H   0  0
    5.4820   -0.6760   -1.4390 H   0  0
    1.6540   -2.4570   -2.3910 H   0  0
    3.4410   -1.1030    2.7950 H   0  0
    0.7400   -0.2710   -2.0680 H   0  0
    0.6910   -0.3940    2.9300 H   0  0
    0.9710    1.0760    2.0270 H   0  0
   -1.2740    0.3670   -0.9570 H   0  0
   -0.2500   -2.2810    1.4260 H   0  0
   -1.5250   -1.7210    2.4410 H   0  0
   -2.0960    1.7600    3.4340 H   0  0
   -3.4200   -0.2190    2.5550 H   0  0
   -3.8320    1.3240    1.9240 H   0  0
   -1.7420   -2.1400   -0.6040 H   0  0
   -2.1330   -3.3240    0.5860 H   0  0
   -3.2640    2.0060   -0.1880 H   0  0
    0.2130    2.7560    2.2520 H   0  0
   -3.3010    0.2110   -0.4530 H   0  0
   -4.7950   -0.0210    0.3810 H   0  0
   -4.0200   -2.1310    1.4020 H   0  0
   -4.1210   -2.1890   -0.3300 H   0  0
   -2.9960    4.2330   -1.2460 H   0  0
    0.4750    4.9810    1.1890 H   0  0
   -1.1290    5.7230   -0.5610 H   0  0
  1  2  1  0
  2  3  2  0
  2  4  1  0
  3  5  1  0
  4  6  2  0
  5  7  2  0
  7  8  1  0
  8  9  1  0
  8 10  1  0
  9 11  2  0
 10 12  2  0
 10 13  1  0
 12 14  1  0
 13 15  2  0
 16 14  1  0
 16 17  1  0
 16 18  1  0
 17 19  1  0
 17 20  1  0
 17 21  1  0
 18 22  1  0
 20 23  2  0
 20 24  1  0
 21 25  1  0
 22 26  1  0
 23 27  1  0
 24 28  2  0
 27 29  2  0
  6  7  1  0
 11 12  1  0
 16 15  1  0
 25 26  1  0
 28 29  1  0
  3 30  1  0
  4 31  1  0
  5 32  1  0
  6 33  1  0
 11 34  1  0
 13 35  1  0
 14 36  1  0
 14 37  1  0
 15 38  1  0
 18 39  1  0
 18 40  1  0
 19 41  1  0
 21 42  1  0
 21 43  1  0
 22 44  1  0
 22 45  1  0
 23 46  1  0
 24 47  1  0
 25 48  1  0
 25 49  1  0
 26 50  1  0
 26 51  1  0
 27 52  1  0
 28 53  1  0
 29 54  1  0
M  END
> <Name>
CHEMBL4438320

> <IC50 nM>
9.5

> <Molecule_ChEMBL_ID>
CHEMBL4438320

> <Smiles>
O[C@]1(c2ccccc2)CCCCC[C@@]12C=Cc1c(cnn1-c1ccc(F)cc1)C2

$$$$
CHEMBL4528635
  SciTegic08162514323D

 54 58  0  0  1  0            999 V2000
    7.7380   -1.0660    1.7750 F   0  0
    6.6600   -0.8260    1.0350 C   0  0
    6.7850   -0.6500   -0.3540 C   0  0
    5.3930   -0.7480    1.6410 C   0  0
    5.6450   -0.3990   -1.1370 C   0  0
    4.2520   -0.4960    0.8590 C   0  0
    4.3770   -0.3200   -0.5330 C   0  0
    3.2760   -0.0760   -1.2890 N   0  0
    3.2190    0.8220   -2.3090 N   0  0
    2.0650   -0.6780   -1.1450 C   0  0
    2.0000    0.8730   -2.9120 C   0  0
    1.3280   -0.0880   -2.1560 C   0  0
    1.5490   -1.6950   -0.2130 C   0  0
   -0.1130   -0.5450   -2.3580 C   0  0
    0.2230   -1.9450   -0.2070 C   0  0
   -0.7730   -1.1390   -1.0550 C   0  0  1  0  0  0
   -1.4100   -0.0430   -0.1210 C   0  0  1  0  0  0
   -1.8980   -2.1040   -1.4980 C   0  0
   -0.6850    1.1740   -0.2030 O   0  0
   -2.9280    0.2130   -0.3560 C   0  0  2  0  0  0
   -2.9940   -1.4040   -2.3280 C   0  0
   -3.3220    0.0140   -1.8260 C   0  0
   -3.4320    1.5590    0.1870 C   0  0
   -3.1910    1.6820    1.6480 C   0  0
   -2.2790    2.6350    2.1350 C   0  0
   -3.8810    0.8480    2.5490 C   0  0
   -2.0530    2.7520    3.5180 C   0  0
   -3.6540    0.9650    3.9300 C   0  0
   -2.7400    1.9160    4.4160 C   0  0
    7.7560   -0.7090   -0.8240 H   0  0
    5.2930   -0.8830    2.7090 H   0  0
    5.7620   -0.2660   -2.2050 H   0  0
    3.2870   -0.4400    1.3440 H   0  0
    1.6930    1.4960   -3.7400 H   0  0
    2.2150   -2.2290    0.4490 H   0  0
   -0.7030    0.2730   -2.7700 H   0  0
   -0.0800   -1.3090   -3.1350 H   0  0
   -0.1440   -2.7400    0.4260 H   0  0
   -1.3160   -0.3440    0.9220 H   0  0
   -2.3630   -2.5470   -0.6130 H   0  0
   -1.4920   -2.9430   -2.0680 H   0  0
    0.0630    1.1030    0.4100 H   0  0
   -3.4650   -0.5530    0.2050 H   0  0
   -2.6970   -1.3540   -3.3750 H   0  0
   -3.8930   -2.0200   -2.3030 H   0  0
   -2.8090    0.7560   -2.4360 H   0  0
   -4.3870    0.2070   -1.9610 H   0  0
   -4.4940    1.6840   -0.0200 H   0  0
   -2.9490    2.3870   -0.3300 H   0  0
   -1.7460    3.2790    1.4510 H   0  0
   -4.5840    0.1130    2.1820 H   0  0
   -1.3520    3.4820    3.8910 H   0  0
   -4.1820    0.3220    4.6210 H   0  0
   -2.5680    2.0060    5.4790 H   0  0
  1  2  1  0
  2  3  2  0
  2  4  1  0
  3  5  1  0
  4  6  2  0
  5  7  2  0
  7  8  1  0
  8  9  1  0
  8 10  1  0
  9 11  2  0
 10 12  2  0
 10 13  1  0
 12 14  1  0
 13 15  2  0
 16 14  1  0
 16 17  1  0
 16 18  1  0
 17 19  1  0
 17 20  1  0
 18 21  1  0
 20 22  1  0
 20 23  1  0
 23 24  1  0
 24 25  2  0
 24 26  1  0
 25 27  1  0
 26 28  2  0
 27 29  2  0
  6  7  1  0
 11 12  1  0
 16 15  1  0
 21 22  1  0
 28 29  1  0
  3 30  1  0
  4 31  1  0
  5 32  1  0
  6 33  1  0
 11 34  1  0
 13 35  1  0
 14 36  1  0
 14 37  1  0
 15 38  1  0
 17 39  1  0
 18 40  1  0
 18 41  1  0
 19 42  1  0
 20 43  1  0
 21 44  1  0
 21 45  1  0
 22 46  1  0
 22 47  1  0
 23 48  1  0
 23 49  1  0
 25 50  1  0
 26 51  1  0
 27 52  1  0
 28 53  1  0
 29 54  1  0
M  END
> <Name>
CHEMBL4528635

> <IC50 nM>
1000

> <Molecule_ChEMBL_ID>
CHEMBL4528635

> <Smiles>
O[C@H]1[C@@H](Cc2ccccc2)CCC[C@]12C=Cc1c(cnn1-c1ccc(F)cc1)C2

$$$$
CHEMBL364511
  SciTegic08162514323D

 52 56  0  0  1  0            999 V2000
    8.2930   -1.0630    0.2310 F   0  0
    7.0760   -0.5310    0.1370 C   0  0
    6.0650   -1.2070   -0.5660 C   0  0
    6.8050    0.7090    0.7400 C   0  0
    4.7790   -0.6450   -0.6660 C   0  0
    5.5200    1.2730    0.6430 C   0  0
    4.5040    0.5960   -0.0610 C   0  0
    3.2640    1.1410   -0.1540 N   0  0
    3.0100    2.4490   -0.4300 N   0  0
    2.0920    0.4730    0.0020 C   0  0
    1.6820    2.7440   -0.4610 C   0  0
    1.1580    1.4860   -0.1740 C   0  0
    1.7500   -0.9360    0.2870 C   0  0
   -0.3160    1.1270   -0.0100 C   0  0
    0.4510   -1.2830    0.1470 C   0  0
   -0.5960   -0.3460   -0.4360 C   0  0  1  0  0  0
   -0.1310   -2.6110    0.5220 C   0  0
   -1.9450   -1.0410   -0.0370 C   0  0
   -0.4410   -0.4410   -1.9610 C   0  0
   -1.5390   -2.5370   -0.0620 C   0  0
   -2.3830   -0.7540    1.3010 O   0  0
   -2.9960   -0.8790   -0.9960 O   0  0
   -3.1350    0.4470    1.4860 C   0  0
   -3.6740    0.3650   -0.9570 C   0  0
   -4.2700    0.5550    0.4510 C   0  0
   -5.3520   -0.5020    0.7270 C   0  0
   -4.9200    1.9370    0.5470 C   0  0
    6.2700   -2.1600   -1.0330 H   0  0
    7.5780    1.2320    1.2810 H   0  0
    4.0160   -1.1820   -1.2110 H   0  0
    5.3300    2.2270    1.1150 H   0  0
    1.2130    3.7010   -0.6540 H   0  0
    2.5000   -1.6470    0.5980 H   0  0
   -0.9510    1.8320   -0.5470 H   0  0
   -0.5060    1.2500    1.0550 H   0  0
   -0.1540   -2.7050    1.5980 H   0  0
    0.4410   -3.4300    0.1110 H   0  0
   -0.6110   -1.4550   -2.3220 H   0  0
    0.5610   -0.1410   -2.2680 H   0  0
   -1.1540    0.2150   -2.4630 H   0  0
   -2.2310   -3.1780    0.4710 H   0  0
   -1.5040   -2.9060   -1.0800 H   0  0
   -3.5270    0.4410    2.5040 H   0  0
   -2.4900    1.3160    1.4140 H   0  0
   -2.9730    1.1600   -1.2090 H   0  0
   -4.4510    0.3590   -1.7210 H   0  0
   -6.1560   -0.4610   -0.0080 H   0  0
   -5.7910   -0.3560    1.7130 H   0  0
   -4.9260   -1.5060    0.6970 H   0  0
   -5.7250    2.0370   -0.1800 H   0  0
   -5.3180    2.1070    1.5470 H   0  0
   -4.1900    2.7210    0.3420 H   0  0
  1  2  1  0
  2  3  2  0
  2  4  1  0
  3  5  1  0
  4  6  2  0
  5  7  2  0
  7  8  1  0
  8  9  1  0
  8 10  1  0
  9 11  2  0
 10 12  2  0
 10 13  1  0
 12 14  1  0
 13 15  2  0
 14 16  1  0
 15 17  1  0
 16 18  1  0
 16 19  1  0
 17 20  1  0
 18 21  1  0
 18 22  1  0
 21 23  1  0
 22 24  1  0
 23 25  1  0
 25 26  1  0
 25 27  1  0
  6  7  1  0
 11 12  1  0
 15 16  1  0
 18 20  1  0
 24 25  1  0
  3 28  1  0
  4 29  1  0
  5 30  1  0
  6 31  1  0
 11 32  1  0
 13 33  1  0
 14 34  1  0
 14 35  1  0
 17 36  1  0
 17 37  1  0
 19 38  1  0
 19 39  1  0
 19 40  1  0
 20 41  1  0
 20 42  1  0
 23 43  1  0
 23 44  1  0
 24 45  1  0
 24 46  1  0
 26 47  1  0
 26 48  1  0
 26 49  1  0
 27 50  1  0
 27 51  1  0
 27 52  1  0
M  END
> <Name>
CHEMBL364511

> <IC50 nM>
28

> <Molecule_ChEMBL_ID>
CHEMBL364511

> <Smiles>
CC1(C)COC2(CCC3=Cc4c(cnn4-c4ccc(F)cc4)C[C@@]32C)OC1

$$$$
CHEMBL263506
  SciTegic08162514323D

148155  0  0  1  0            999 V2000
   -2.4940   -7.4880   -1.9140 S   0  0
   -2.0060   -6.6450   -0.8380 O   0  0
   -2.8340   -8.8320   -1.4780 O   0  0
   -3.8460   -6.8070   -2.4920 N   0  0
   -1.2380   -7.5940   -3.1820 C   0  0
   -4.9790   -6.7660   -1.7190 C   0  0
   -6.2190   -6.3420   -2.2520 C   0  0
   -4.8950   -7.1560   -0.3690 C   0  0
   -7.3650   -6.3130   -1.4220 C   0  0
   -6.3190   -5.9240   -3.6860 C   0  0
   -6.0330   -7.1270    0.4490 C   0  0
   -8.5840   -5.9060   -1.9040 N   0  0
   -7.2660   -6.7050   -0.0740 C   0  0
   -8.8190   -4.5080   -2.2890 C   0  0
   -9.6800   -6.8770   -2.0410 C   0  0
   -8.1700   -3.5630   -1.3420 C   0  0
   -9.2350   -8.1100   -2.7400 C   0  0
   -7.0080   -2.8690   -1.7270 C   0  0
   -8.7170   -3.3630   -0.0620 C   0  0
   -8.8070   -9.2230   -1.9980 C   0  0
   -9.2420   -8.1640   -4.1450 C   0  0
   -6.3930   -1.9770   -0.8300 C   0  0
   -8.1040   -2.4710    0.8320 C   0  0
   -8.3850  -10.3910   -2.6580 C   0  0
   -8.8200   -9.3320   -4.8050 C   0  0
   -6.9420   -1.7770    0.4490 C   0  0
   -5.1640   -1.2440   -1.2340 C   0  0
   -8.3910  -10.4470   -4.0640 C   0  0
   -4.6540   -0.3380   -0.1110 C   0  0
   -7.9960  -11.5410   -4.6840 O   0  0
   -3.3850    0.4220   -0.4980 C   0  0
   -8.6350  -11.8970   -5.7810 C   0  0
   -2.8950    1.3180    0.6070 C   0  0
   -7.9300  -12.4690   -6.8540 C   0  0
  -10.0240  -11.7030   -5.8830 C   0  0
   -3.4650    1.3650    1.6700 O   0  0
   -1.7850    2.0840    0.3850 N   0  0
   -8.6100  -12.8480   -8.0240 C   0  0
  -10.7050  -12.0820   -7.0530 C   0  0
   -1.2910    2.9650    1.4530 C   0  0
   -9.9980  -12.6550   -8.1230 C   0  0
   -0.0470    3.7300    1.0020 C   0  0
    0.3750    4.5530    2.0660 O   0  0
    1.5180    5.3260    1.7540 C   0  0  2  0  0  0
    2.7830    4.4410    1.8280 C   0  0
    1.5760    6.5310    2.7170 C   0  0
    3.4960    4.5960    3.1860 C   0  0  2  0  0  0
    3.0040    7.0800    2.8200 C   0  0
    4.0270    6.0490    3.3850 C   0  0  2  0  0  0
    4.5550    3.5080    3.4630 C   0  0
    5.4000    6.2600    2.6780 C   0  0  2  0  0  0
    4.1860    6.2810    4.8970 C   0  0
    5.9020    3.7400    2.7640 C   0  0  2  0  0  0
    6.4340    5.1620    3.0430 C   0  0  1  0  0  0
    5.9770    7.6820    2.9140 C   0  0
    5.7560    3.5100    1.3750 O   0  0
    7.7480    5.4470    2.2910 C   0  0  1  0  0  0
    7.3420    7.9320    2.2340 C   0  0  1  0  0  0
    8.3280    6.8220    2.6490 C   0  0  2  0  0  0
    8.9160    4.5020    2.5680 C   0  0
    7.1560    7.9750    0.8300 O   0  0
    9.6580    6.7340    1.8830 C   0  0  2  0  0  0
    8.6370    6.9200    4.1500 C   0  0
   10.1560    5.3130    2.1760 C   0  0
   10.6760    7.8050    2.2740 C   0  0  1  0  0  0
   11.9960    7.5410    1.5490 C   0  0
   10.1040    9.1900    1.9710 C   0  0
   13.1660    8.3240    2.1470 C   0  0
   14.4690    8.0270    1.4570 C   0  0
   14.5160    7.2700    0.5160 O   0  0
   15.5310    8.6500    1.9590 O   0  0
   -3.8560   -6.4180   -3.4120 H   0  0
   -0.3030   -8.0450   -2.8500 H   0  0
   -1.0120   -6.5940   -3.5530 H   0  0
   -1.6130   -8.1820   -4.0200 H   0  0
   -3.9550   -7.4850    0.0570 H   0  0
   -7.3320   -5.9240   -4.0840 H   0  0
   -5.7190   -6.5960   -4.3030 H   0  0
   -5.9140   -4.9200   -3.8010 H   0  0
   -5.9610   -7.4280    1.4840 H   0  0
   -8.1290   -6.6920    0.5740 H   0  0
   -8.4280   -4.3420   -3.2930 H   0  0
   -9.8910   -4.3170   -2.3140 H   0  0
  -10.4980   -6.4180   -2.6000 H   0  0
  -10.0570   -7.1350   -1.0530 H   0  0
   -6.5860   -3.0240   -2.7090 H   0  0
   -9.6100   -3.8930    0.2360 H   0  0
   -8.7970   -9.1880   -0.9180 H   0  0
   -9.5720   -7.3130   -4.7230 H   0  0
   -8.5240   -2.3170    1.8150 H   0  0
   -8.0550  -11.2420   -2.0840 H   0  0
   -8.8280   -9.3690   -5.8850 H   0  0
   -6.4750   -1.0920    1.1430 H   0  0
   -4.3970   -1.9570   -1.5330 H   0  0
   -5.3670   -0.6640   -2.1350 H   0  0
   -5.4340    0.3520    0.2110 H   0  0
   -4.4980   -0.9100    0.8030 H   0  0
   -3.6470    1.0180   -1.3710 H   0  0
   -2.5960   -0.2720   -0.7910 H   0  0
   -6.8630  -12.6210   -6.7810 H   0  0
  -10.5710  -11.2640   -5.0630 H   0  0
   -1.3130    2.0430   -0.4960 H   0  0
   -8.0670  -13.2870   -8.8480 H   0  0
  -11.7720  -11.9320   -7.1290 H   0  0
   -2.0840    3.6560    1.7420 H   0  0
   -1.0760    2.3690    2.3400 H   0  0
  -10.5220  -12.9460   -9.0240 H   0  0
    0.7640    3.0410    0.7660 H   0  0
   -0.2750    4.3670    0.1480 H   0  0
    1.3890    5.6760    0.7290 H   0  0
    2.5510    3.3950    1.6290 H   0  0
    3.4630    4.7440    1.0310 H   0  0
    0.8930    7.3130    2.3810 H   0  0
    1.2480    6.2500    3.7190 H   0  0
    2.7210    4.4200    3.9300 H   0  0
    3.2970    7.3870    1.8150 H   0  0
    3.0120    7.9940    3.4120 H   0  0
    4.7400    3.4820    4.5370 H   0  0
    4.1580    2.5210    3.2170 H   0  0
    5.2230    6.1720    1.6040 H   0  0
    3.2680    6.0590    5.4400 H   0  0
    4.4510    7.3180    5.1020 H   0  0
    4.9750    5.6480    5.3030 H   0  0
    6.6210    3.0040    3.1230 H   0  0
    6.6290    5.2250    4.1130 H   0  0
    5.2660    8.4400    2.5780 H   0  0
    6.0900    7.8500    3.9840 H   0  0
    6.6290    3.2620    1.0330 H   0  0
    7.5490    5.4120    1.2270 H   0  0
    7.7290    8.9080    2.5270 H   0  0
    8.8340    3.5840    2.0040 H   0  0
    8.9550    4.2400    3.6150 H   0  0
    6.6290    8.7660    0.6350 H   0  0
    9.4770    6.8140    0.8220 H   0  0
    9.3890    6.1930    4.4590 H   0  0
    7.7380    6.7380    4.7400 H   0  0
    9.0080    7.9120    4.4040 H   0  0
   10.6450    4.8930    1.3070 H   0  0
   10.8730    5.3010    2.9840 H   0  0
   10.7930    7.6620    3.3480 H   0  0
   11.8990    7.7460    0.4820 H   0  0
   12.2190    6.4730    1.5290 H   0  0
   10.9020    9.8950    1.7460 H   0  0
    9.4180    9.1450    1.1250 H   0  0
    9.5510    9.5720    2.8280 H   0  0
   13.2230    8.0270    3.1930 H   0  0
   12.9670    9.3970    2.1150 H   0  0
   16.3990    8.5020    1.5630 H   0  0
  1  2  2  0
  1  3  2  0
  1  4  1  0
  1  5  1  0
  4  6  1  0
  6  7  2  0
  6  8  1  0
  7  9  1  0
  7 10  1  0
  8 11  2  0
  9 12  1  0
  9 13  2  0
 12 14  1  0
 12 15  1  0
 14 16  1  0
 15 17  1  0
 16 18  2  0
 16 19  1  0
 17 20  2  0
 17 21  1  0
 18 22  1  0
 19 23  2  0
 20 24  1  0
 21 25  2  0
 22 26  2  0
 22 27  1  0
 24 28  2  0
 27 29  1  0
 28 30  1  0
 29 31  1  0
 30 32  1  0
 31 33  1  0
 32 34  2  0
 32 35  1  0
 33 36  2  0
 33 37  1  0
 34 38  1  0
 35 39  2  0
 37 40  1  0
 38 41  2  0
 40 42  1  0
 42 43  1  0
 44 43  1  0
 44 45  1  0
 44 46  1  0
 47 45  1  0
 46 48  1  0
 47 49  1  0
 47 50  1  0
 49 51  1  0
 49 52  1  0
 50 53  1  0
 54 51  1  0
 51 55  1  0
 53 56  1  0
 54 57  1  0
 55 58  1  0
 57 59  1  0
 57 60  1  0
 58 61  1  0
 59 62  1  0
 59 63  1  0
 60 64  1  0
 62 65  1  0
 65 66  1  0
 65 67  1  0
 66 68  1  0
 68 69  1  0
 69 70  2  0
 69 71  1  0
 11 13  1  0
 23 26  1  0
 25 28  1  0
 39 41  1  0
 48 49  1  0
 53 54  1  0
 58 59  1  0
 62 64  1  0
  4 72  1  0
  5 73  1  0
  5 74  1  0
  5 75  1  0
  8 76  1  0
 10 77  1  0
 10 78  1  0
 10 79  1  0
 11 80  1  0
 13 81  1  0
 14 82  1  0
 14 83  1  0
 15 84  1  0
 15 85  1  0
 18 86  1  0
 19 87  1  0
 20 88  1  0
 21 89  1  0
 23 90  1  0
 24 91  1  0
 25 92  1  0
 26 93  1  0
 27 94  1  0
 27 95  1  0
 29 96  1  0
 29 97  1  0
 31 98  1  0
 31 99  1  0
 34100  1  0
 35101  1  0
 37102  1  0
 38103  1  0
 39104  1  0
 40105  1  0
 40106  1  0
 41107  1  0
 42108  1  0
 42109  1  0
 44110  1  0
 45111  1  0
 45112  1  0
 46113  1  0
 46114  1  0
 47115  1  0
 48116  1  0
 48117  1  0
 50118  1  0
 50119  1  0
 51120  1  0
 52121  1  0
 52122  1  0
 52123  1  0
 53124  1  0
 54125  1  0
 55126  1  0
 55127  1  0
 56128  1  0
 57129  1  0
 58130  1  0
 60131  1  0
 60132  1  0
 61133  1  0
 62134  1  0
 63135  1  0
 63136  1  0
 63137  1  0
 64138  1  0
 64139  1  0
 65140  1  0
 66141  1  0
 66142  1  0
 67143  1  0
 67144  1  0
 67145  1  0
 68146  1  0
 68147  1  0
 71148  1  0
M  END
> <Name>
CHEMBL263506

> <IC50 nM>
93

> <Molecule_ChEMBL_ID>
CHEMBL263506

> <Smiles>
Cc1c(NS(C)(=O)=O)cccc1N(Cc1ccc(Oc2ccccc2)cc1)Cc1cccc(CCCC(=O)NCCO[C@H]2CC[C@@]3(C)[C@@H](C2)C[C@@H](O)[C@@H]2[C@@H]3C[C@H](O)[C@]3(C)[C@@H]([C@H](C)CCC(=O)O)CC[C@@H]23)c1

$$$$
CHEMBL4075236
  SciTegic08162514323D

 51 54  0  0  0  0            999 V2000
   -1.2440    0.5450    3.1990 S   0  0
   -2.2050    1.5720    2.8320 O   0  0
   -0.6600    0.7520    4.5120 O   0  0
   -0.0410    0.5960    2.1150 N   0  0
   -2.0530   -0.9780    3.1990 C   0  0
   -0.2050    0.0230    0.8830 C   0  0
    1.2290    1.2540    2.4570 C   0  0
   -3.4570   -1.0270    3.1990 C   0  0
   -1.3050   -2.1700    3.1990 C   0  0
    0.9160   -0.3930    0.1430 C   0  0
   -1.4980   -0.1480    0.3510 C   0  0
    1.5570    2.3380    1.4960 C   0  0
   -4.1150   -2.2710    3.1990 C   0  0
   -1.9630   -3.4100    3.1990 C   0  0
    0.7440   -0.9780   -1.1230 C   0  0
   -1.6660   -0.7340   -0.9160 C   0  0
    0.6720    3.4160    1.3200 C   0  0
    2.7560    2.2890    0.7620 C   0  0
   -3.3690   -3.4610    3.1990 C   0  0
   -0.5450   -1.1520   -1.6560 C   0  0
    0.9820    4.4420    0.4100 C   0  0
    3.0660    3.3150   -0.1470 C   0  0
   -0.7030   -1.7010   -2.8440 O   0  0
    2.1820    4.3910   -0.3220 C   0  0
    0.1820   -1.4200   -3.7770 C   0  0
    0.5800   -2.4100   -4.6940 C   0  0
    0.7290   -0.1270   -3.8650 C   0  0
    1.5230   -2.1110   -5.6920 C   0  0
    1.6720    0.1740   -4.8630 C   0  0
    2.0700   -0.8180   -5.7760 C   0  0
    2.0270    0.5140    2.4570 H   0  0
    1.1580    1.6680    3.4630 H   0  0
   -4.0330   -0.1130    3.1990 H   0  0
   -0.2250   -2.1310    3.1990 H   0  0
    1.9160   -0.2690    0.5330 H   0  0
   -2.3730    0.1660    0.9040 H   0  0
   -5.1950   -2.3110    3.1990 H   0  0
   -1.3910   -4.3260    3.1990 H   0  0
    1.6090   -1.2990   -1.6880 H   0  0
   -2.6580   -0.8630   -1.3200 H   0  0
   -0.2520    3.4610    1.8810 H   0  0
    3.4410    1.4630    0.8930 H   0  0
   -3.8750   -4.4160    3.1990 H   0  0
    0.3030    5.2700    0.2750 H   0  0
    3.9880    3.2750   -0.7110 H   0  0
    2.4200    5.1800   -1.0220 H   0  0
    0.1640   -3.4040   -4.6310 H   0  0
    0.4260    0.6370   -3.1660 H   0  0
    1.8300   -2.8730   -6.3930 H   0  0
    2.0920    1.1660   -4.9280 H   0  0
    2.7950   -0.5880   -6.5430 H   0  0
  1  2  2  0
  1  3  2  0
  1  4  1  0
  1  5  1  0
  4  6  1  0
  4  7  1  0
  5  8  2  0
  5  9  1  0
  6 10  2  0
  6 11  1  0
  7 12  1  0
  8 13  1  0
  9 14  2  0
 10 15  1  0
 11 16  2  0
 12 17  2  0
 12 18  1  0
 13 19  2  0
 15 20  2  0
 17 21  1  0
 18 22  2  0
 20 23  1  0
 21 24  2  0
 23 25  1  0
 25 26  2  0
 25 27  1  0
 26 28  1  0
 27 29  2  0
 28 30  2  0
 14 19  1  0
 16 20  1  0
 22 24  1  0
 29 30  1  0
  7 31  1  0
  7 32  1  0
  8 33  1  0
  9 34  1  0
 10 35  1  0
 11 36  1  0
 13 37  1  0
 14 38  1  0
 15 39  1  0
 16 40  1  0
 17 41  1  0
 18 42  1  0
 19 43  1  0
 21 44  1  0
 22 45  1  0
 24 46  1  0
 26 47  1  0
 27 48  1  0
 28 49  1  0
 29 50  1  0
 30 51  1  0
M  END
> <Name>
CHEMBL4075236

> <IC50 nM>
3590

> <Molecule_ChEMBL_ID>
CHEMBL4075236

> <Smiles>
O=S(=O)(c1ccccc1)N(Cc1ccccc1)c1ccc(Oc2ccccc2)cc1

$$$$
CHEMBL4086436
  SciTegic08162514323D

 53 56  0  0  0  0            999 V2000
    1.6950    0.6840    1.6800 S   0  0
    1.7750   -0.6930    2.1410 O   0  0
    2.7810    1.5160    2.1700 O   0  0
    1.7870    0.6620    0.0630 N   0  0
    0.2050    1.3540    2.2350 C   0  0
    0.6480    0.5390   -0.6850 C   0  0
    3.0940    0.7750   -0.5990 C   0  0
   -0.5330    0.6900    3.2310 C   0  0
   -0.2660    2.5610    1.6900 C   0  0
    0.5590    1.1660   -1.9430 C   0  0
   -0.4380   -0.2170   -0.2010 C   0  0
    4.1210   -0.0680    0.0650 C   0  0
   -1.7480    1.2340    3.6840 C   0  0
   -1.4790    3.1090    2.1410 C   0  0
   -0.6130    1.0370   -2.7110 C   0  0
   -1.6050   -0.3420   -0.9730 C   0  0
    3.8950   -1.4450    0.2400 C   0  0
    5.3200    0.5080    0.5220 C   0  0
   -2.2150    2.4410    3.1350 C   0  0
   -1.6970    0.2830   -2.2280 C   0  0
    4.8650   -2.2440    0.8690 C   0  0
    6.2910   -0.2910    1.1510 C   0  0
   -3.4200    2.9840    3.5840 N   0  3
   -2.7930    0.1640   -2.9490 O   0  0
    6.0630   -1.6660    1.3240 C   0  0
   -3.7750    4.0250    3.0800 O   0  0
   -4.0220    2.3590    4.4550 O   0  5
   -3.4100   -1.0000   -2.9490 C   0  0
   -4.8160   -1.0550   -2.9490 C   0  0
   -2.6680   -2.1930   -2.9490 C   0  0
   -5.4750   -2.2970   -2.9490 C   0  0
   -3.3240   -3.4360   -2.9490 C   0  0
   -4.7290   -3.4860   -2.9490 C   0  0
    3.4140    1.8180   -0.5840 H   0  0
    2.9940    0.4730   -1.6420 H   0  0
   -0.1720   -0.2380    3.6470 H   0  0
    0.3050    3.0700    0.9260 H   0  0
    1.3810    1.7480   -2.3320 H   0  0
   -0.3890   -0.7050    0.7620 H   0  0
   -2.3180    0.7270    4.4470 H   0  0
   -1.8420    4.0370    1.7250 H   0  0
   -0.6780    1.5200   -3.6740 H   0  0
   -2.4380   -0.9220   -0.5960 H   0  0
    2.9770   -1.8960   -0.1070 H   0  0
    5.5000    1.5650    0.3910 H   0  0
    4.6910   -3.3030    1.0020 H   0  0
    7.2110    0.1520    1.5000 H   0  0
    6.8090   -2.2810    1.8070 H   0  0
   -5.3930   -0.1410   -2.9490 H   0  0
   -1.5880   -2.1580   -2.9490 H   0  0
   -6.5550   -2.3340   -2.9490 H   0  0
   -2.7500   -4.3500   -2.9490 H   0  0
   -5.2340   -4.4410   -2.9490 H   0  0
  1  2  2  0
  1  3  2  0
  1  4  1  0
  1  5  1  0
  4  6  1  0
  4  7  1  0
  5  8  2  0
  5  9  1  0
  6 10  2  0
  6 11  1  0
  7 12  1  0
  8 13  1  0
  9 14  2  0
 10 15  1  0
 11 16  2  0
 12 17  2  0
 12 18  1  0
 13 19  2  0
 15 20  2  0
 17 21  1  0
 18 22  2  0
 19 23  1  0
 20 24  1  0
 21 25  2  0
 23 26  2  0
 23 27  1  0
 24 28  1  0
 28 29  2  0
 28 30  1  0
 29 31  1  0
 30 32  2  0
 31 33  2  0
 14 19  1  0
 16 20  1  0
 22 25  1  0
 32 33  1  0
  7 34  1  0
  7 35  1  0
  8 36  1  0
  9 37  1  0
 10 38  1  0
 11 39  1  0
 13 40  1  0
 14 41  1  0
 15 42  1  0
 16 43  1  0
 17 44  1  0
 18 45  1  0
 21 46  1  0
 22 47  1  0
 25 48  1  0
 29 49  1  0
 30 50  1  0
 31 51  1  0
 32 52  1  0
 33 53  1  0
M  CHG  2  23   1  27  -1
M  END
> <Name>
CHEMBL4086436

> <IC50 nM>
5770

> <Molecule_ChEMBL_ID>
CHEMBL4086436

> <Smiles>
O=[N+]([O-])c1ccc(S(=O)(=O)N(Cc2ccccc2)c2ccc(Oc3ccccc3)cc2)cc1

$$$$
CHEMBL3891049
  SciTegic08162514323D

 65 69  0  0  1  0            999 V2000
   -5.3550    0.5740    1.8670 O   0  0
   -4.5960    0.8540    0.9690 C   0  0
   -5.0640    1.4380   -0.1740 N   0  0
   -3.1330    0.6480    0.8950 C   0  0
   -6.4020    1.7110   -0.3050 C   0  0
   -2.5470    0.1580   -0.2910 C   0  0
   -2.3220    0.9470    2.0100 C   0  0
   -7.0920    1.4790   -1.5160 C   0  0
   -7.1170    2.2400    0.7890 C   0  0
   -1.1460   -0.0450   -0.3730 C   0  0
   -0.9260    0.7520    1.9390 C   0  0
   -8.4670    1.7790   -1.5920 C   0  0
   -6.4040    0.9220   -2.7150 C   0  0
   -8.4880    2.5200    0.6480 C   0  0
   -0.3180    0.2420    0.7600 C   0  0
   -0.5840   -0.5640   -1.6500 C   0  0
   -9.1470    2.2910   -0.5250 N   0  0
    1.1700    0.0310    0.7070 C   0  0  1  0  0  0
    0.9420   -0.4240   -1.7700 C   0  0
    1.8340   -0.4220    2.0430 C   0  0  1  0  0  0
    1.6040   -0.8850   -0.4690 C   0  0  1  0  0  0
    1.2640   -1.6390    2.5000 O   0  0
    3.3690   -0.5700    1.9100 C   0  0
    3.1390   -0.8590   -0.5570 C   0  0  1  0  0  0
    3.7810   -1.4470    0.7130 C   0  0  1  0  0  0
    3.7830   -1.6930   -1.6660 C   0  0
    5.2760   -1.4710    0.2910 C   0  0  2  0  0  0
    3.3130   -2.9020    0.9160 C   0  0
    5.1940   -2.0230   -1.1500 C   0  0
    6.0390   -2.3320    1.1150 O   0  0
    5.9120   -0.1430    0.3160 C   0  0
    6.4380    0.9260    0.3440 C   0  0
    7.0860    2.2320    0.3850 C   0  0
   -4.4320    1.6660   -0.9140 H   0  0
   -3.1740   -0.0640   -1.1450 H   0  0
   -2.7620    1.3240    2.9200 H   0  0
   -6.6310    2.4340    1.7340 H   0  0
   -0.3380    1.0020    2.8110 H   0  0
   -9.0000    1.6060   -2.5140 H   0  0
   -5.3930    0.5630   -2.5250 H   0  0
   -6.3460    1.6880   -3.4880 H   0  0
   -6.9840    0.0900   -3.1130 H   0  0
   -9.0350    2.9240    1.4880 H   0  0
   -0.8500   -1.6190   -1.7270 H   0  0
   -1.0570   -0.0680   -2.5000 H   0  0
    1.5720    1.0220    0.4960 H   0  0
    1.2930   -1.0140   -2.6150 H   0  0
    1.2070    0.6130   -1.9790 H   0  0
    1.6540    0.3070    2.8300 H   0  0
    1.2720   -1.9080   -0.2790 H   0  0
    0.3930   -1.4260    2.8670 H   0  0
    3.7990   -0.9650    2.8340 H   0  0
    3.7790    0.4340    1.7990 H   0  0
    3.4450    0.1700   -0.6910 H   0  0
    3.8090   -1.1600   -2.6040 H   0  0
    3.2250   -2.6050   -1.8280 H   0  0
    2.2270   -2.9880    0.8870 H   0  0
    3.6510   -3.2850    1.8790 H   0  0
    3.7170   -3.5510    0.1390 H   0  0
    5.9590   -1.6230   -1.8030 H   0  0
    5.3210   -3.1000   -1.1660 H   0  0
    6.8790   -2.4960    0.6600 H   0  0
    7.2230    2.5530    1.4160 H   0  0
    6.4770    2.9710   -0.1350 H   0  0
    8.0630    2.1840   -0.1000 H   0  0
  1  2  2  0
  2  3  1  0
  2  4  1  0
  3  5  1  0
  4  6  2  0
  4  7  1  0
  5  8  2  0
  5  9  1  0
  6 10  1  0
  7 11  2  0
  8 12  1  0
  8 13  1  0
  9 14  2  0
 10 15  2  0
 10 16  1  0
 12 17  2  0
 18 15  1  0
 16 19  1  0
 18 20  1  0
 18 21  1  0
 20 22  1  0
 20 23  1  0
 21 24  1  0
 23 25  1  0
 24 26  1  0
 25 27  1  0
 25 28  1  0
 26 29  1  0
 27 30  1  0
 27 31  1  0
 31 32  3  0
 32 33  1  0
 11 15  1  0
 14 17  1  0
 21 19  1  0
 24 25  1  0
 27 29  1  0
  3 34  1  0
  6 35  1  0
  7 36  1  0
  9 37  1  0
 11 38  1  0
 12 39  1  0
 13 40  1  0
 13 41  1  0
 13 42  1  0
 14 43  1  0
 16 44  1  0
 16 45  1  0
 18 46  1  0
 19 47  1  0
 19 48  1  0
 20 49  1  0
 21 50  1  0
 22 51  1  0
 23 52  1  0
 23 53  1  0
 24 54  1  0
 26 55  1  0
 26 56  1  0
 28 57  1  0
 28 58  1  0
 28 59  1  0
 29 60  1  0
 29 61  1  0
 30 62  1  0
 33 63  1  0
 33 64  1  0
 33 65  1  0
M  END
> <Name>
CHEMBL3891049

> <IC50 nM>
1357

> <Molecule_ChEMBL_ID>
CHEMBL3891049

> <Smiles>
CC#C[C@]1(O)CC[C@H]2[C@@H]3CCc4cc(C(=O)Nc5ccncc5C)ccc4[C@H]3[C@@H](O)C[C@@]21C

$$$$
CHEMBL196347
  SciTegic08162514323D

 51 55  0  0  1  0            999 V2000
    1.7810   -4.2090    2.2070 S   0  0
    2.5550   -3.5200    0.8610 C   0  0
    3.2380   -4.8110    2.8440 C   0  0
    3.9420   -3.7440    0.8870 C   0  0
    1.7680   -2.7690   -0.1890 C   0  0  2  0  0  0
    4.3300   -4.4840    2.0240 C   0  0
    2.4020   -2.9060   -1.4410 O   0  0
    1.6800   -1.2730    0.1430 C   0  0  2  0  0  0
    0.4410   -0.6000   -0.5140 C   0  0  2  0  0  0
    3.0000   -0.5680   -0.1990 C   0  0
    0.4790    0.9300   -0.3440 C   0  0
   -0.8480   -1.2890    0.0550 C   0  0
    0.4820   -0.8280   -2.0330 C   0  0
    2.9610    0.8930    0.2500 C   0  0
   -0.6500    1.6520   -0.1620 C   0  0
    1.8130    1.6490   -0.4220 C   0  0
   -2.0960   -0.4240   -0.0060 C   0  0
   -1.9410    0.9490   -0.0820 C   0  0
   -3.4120   -0.8810    0.0310 C   0  0
   -3.2320    1.3790   -0.0620 N   0  0
   -4.0680    0.3090   -0.0040 N   0  0
   -3.6370    2.6760   -0.1000 C   0  0
   -3.0550    3.5700   -1.0180 C   0  0
   -4.6390    3.1270    0.7810 C   0  0
   -3.4770    4.9120   -1.0550 C   0  0
   -5.0570    4.4690    0.7420 C   0  0
   -4.4770    5.3610   -0.1760 C   0  0
   -4.8730    6.6310   -0.2110 F   0  0
    3.3010   -5.3730    3.7660 H   0  0
    4.6290   -3.3950    0.1290 H   0  0
    0.7680   -3.1970   -0.2690 H   0  0
    5.3520   -4.7700    2.2380 H   0  0
    2.3610   -3.8440   -1.6820 H   0  0
    1.5610   -1.2010    1.2250 H   0  0
    3.1910   -0.6230   -1.2710 H   0  0
    3.8300   -1.0760    0.2930 H   0  0
   -1.0330   -2.2400   -0.4490 H   0  0
   -0.7050   -1.5350    1.1090 H   0  0
   -0.3070   -0.2600   -2.5290 H   0  0
    1.4470   -0.5270   -2.4410 H   0  0
    0.3340   -1.8810   -2.2710 H   0  0
    2.8440    0.9360    1.3340 H   0  0
    3.9080    1.3790    0.0230 H   0  0
   -0.6130    2.7290   -0.0860 H   0  0
    2.0550    1.8010   -1.4750 H   0  0
    1.7380    2.6450    0.0180 H   0  0
   -3.8360   -1.8770    0.0800 H   0  0
   -2.2850    3.2440   -1.7010 H   0  0
   -5.0980    2.4570    1.4940 H   0  0
   -3.0270    5.5960   -1.7620 H   0  0
   -5.8260    4.8110    1.4200 H   0  0
  1  2  1  0
  1  3  1  0
  2  4  2  0
  2  5  1  0
  3  6  2  0
  5  7  1  0
  5  8  1  0
  8  9  1  0
  8 10  1  0
  9 11  1  0
  9 12  1  0
  9 13  1  0
 10 14  1  0
 11 15  2  0
 11 16  1  0
 12 17  1  0
 15 18  1  0
 17 19  1  0
 18 20  1  0
 19 21  2  0
 20 22  1  0
 22 23  2  0
 22 24  1  0
 23 25  1  0
 24 26  2  0
 25 27  2  0
 27 28  1  0
  4  6  1  0
 14 16  1  0
 17 18  2  0
 20 21  1  0
 26 27  1  0
  3 29  1  0
  4 30  1  0
  5 31  1  0
  6 32  1  0
  7 33  1  0
  8 34  1  0
 10 35  1  0
 10 36  1  0
 12 37  1  0
 12 38  1  0
 13 39  1  0
 13 40  1  0
 13 41  1  0
 14 42  1  0
 14 43  1  0
 15 44  1  0
 16 45  1  0
 16 46  1  0
 19 47  1  0
 23 48  1  0
 24 49  1  0
 25 50  1  0
 26 51  1  0
M  END
> <Name>
CHEMBL196347

> <IC50 nM>
7.1

> <Molecule_ChEMBL_ID>
CHEMBL196347

> <Smiles>
C[C@]12Cc3cnn(-c4ccc(F)cc4)c3C=C1CCC[C@@H]2[C@@H](O)c1cccs1

$$$$
CHEMBL194077
  SciTegic08162514323D

 51 55  0  0  1  0            999 V2000
    0.4260   -4.0220    2.3790 Cl  0  0
    2.1110   -4.1450    2.0740 C   0  0
    3.4080   -4.8600    2.9080 S   0  0
    2.6210   -3.5510    0.8980 C   0  0
    4.6230   -4.4320    1.8030 C   0  0
    4.0140   -3.7150    0.7600 C   0  0
    1.7930   -2.8050   -0.1330 C   0  0  2  0  0  0
    6.3160   -4.6740    1.7070 Cl  0  0
    2.3910   -2.9400   -1.4020 O   0  0
    1.7050   -1.3110    0.2010 C   0  0  2  0  0  0
    0.4670   -0.6370   -0.4570 C   0  0  2  0  0  0
    3.0250   -0.6060   -0.1410 C   0  0
    0.5040    0.8940   -0.2850 C   0  0
   -0.8220   -1.3260    0.1130 C   0  0
    0.5080   -0.8630   -1.9750 C   0  0
    2.9860    0.8550    0.3090 C   0  0
   -0.6250    1.6150   -0.1060 C   0  0
    1.8380    1.6110   -0.3630 C   0  0
   -2.0700   -0.4590    0.0510 C   0  0
   -1.9160    0.9120   -0.0230 C   0  0
   -3.3870   -0.9180    0.0900 C   0  0
   -3.2050    1.3420   -0.0040 N   0  0
   -4.0430    0.2710    0.0550 N   0  0
   -3.6110    2.6390   -0.0410 C   0  0
   -3.0270    3.5350   -0.9570 C   0  0
   -4.6150    3.0900    0.8380 C   0  0
   -3.4470    4.8770   -0.9940 C   0  0
   -5.0330    4.4320    0.7990 C   0  0
   -4.4490    5.3240   -0.1170 C   0  0
   -4.8480    6.5940   -0.1520 F   0  0
    4.5550   -3.3170   -0.0880 H   0  0
    0.7950   -3.2400   -0.1800 H   0  0
    2.3810   -3.8850   -1.6250 H   0  0
    1.5860   -1.2370    1.2830 H   0  0
    3.2170   -0.6600   -1.2130 H   0  0
    3.8570   -1.1130    0.3520 H   0  0
   -1.0080   -2.2760   -0.3910 H   0  0
   -0.6800   -1.5700    1.1680 H   0  0
   -0.2640   -0.2760   -2.4730 H   0  0
    1.4800   -0.5880   -2.3790 H   0  0
    0.3320   -1.9120   -2.2150 H   0  0
    2.8690    0.8980    1.3930 H   0  0
    3.9340    1.3420    0.0800 H   0  0
   -0.5880    2.6910   -0.0270 H   0  0
    2.0800    1.7640   -1.4160 H   0  0
    1.7640    2.6070    0.0760 H   0  0
   -3.8110   -1.9120    0.1390 H   0  0
   -2.2560    3.2090   -1.6390 H   0  0
   -5.0760    2.4180    1.5470 H   0  0
   -2.9960    5.5590   -1.6990 H   0  0
   -5.8050    4.7710    1.4750 H   0  0
  1  2  1  0
  2  3  1  0
  2  4  2  0
  3  5  1  0
  4  6  1  0
  4  7  1  0
  5  8  1  0
  7  9  1  0
  7 10  1  0
 10 11  1  0
 10 12  1  0
 11 13  1  0
 11 14  1  0
 11 15  1  0
 12 16  1  0
 13 17  2  0
 13 18  1  0
 14 19  1  0
 17 20  1  0
 19 21  1  0
 20 22  1  0
 21 23  2  0
 22 24  1  0
 24 25  2  0
 24 26  1  0
 25 27  1  0
 26 28  2  0
 27 29  2  0
 29 30  1  0
  5  6  2  0
 16 18  1  0
 19 20  2  0
 22 23  1  0
 28 29  1  0
  6 31  1  0
  7 32  1  0
  9 33  1  0
 10 34  1  0
 12 35  1  0
 12 36  1  0
 14 37  1  0
 14 38  1  0
 15 39  1  0
 15 40  1  0
 15 41  1  0
 16 42  1  0
 16 43  1  0
 17 44  1  0
 18 45  1  0
 18 46  1  0
 21 47  1  0
 25 48  1  0
 26 49  1  0
 27 50  1  0
 28 51  1  0
M  END
> <Name>
CHEMBL194077

> <IC50 nM>
10.2

> <Molecule_ChEMBL_ID>
CHEMBL194077

> <Smiles>
C[C@]12Cc3cnn(-c4ccc(F)cc4)c3C=C1CCC[C@@H]2[C@@H](O)c1cc(Cl)sc1Cl

$$$$
CHEMBL3902818
  SciTegic08162514323D

 58 62  0  0  1  0            999 V2000
   -0.4900   -1.0000    8.6760 F   0  0
   -0.5270   -0.3050    7.5430 C   0  0
    0.3360   -0.6390    6.4850 C   0  0
   -1.4300    0.7640    7.4010 C   0  0
    0.2970    0.0940    5.2850 C   0  0
   -1.4710    1.4980    6.2030 C   0  0
   -0.6060    1.1640    5.1430 C   0  0
   -0.6450    1.8750    3.9850 N   0  0
   -0.7580    3.2440    3.8910 N   0  0
   -0.5780    1.3790    2.7230 C   0  0
   -0.7740    3.7400    2.6040 C   0  0
   -0.6580    2.5230    1.9530 C   0  0
   -0.4570    0.0820    2.1700 C   0  0
   -0.6210    2.4140    0.5390 C   0  0
   -0.4200   -0.0330    0.7580 C   0  0
   -0.5020    1.1290   -0.0570 C   0  0
   -0.4650    1.0120   -1.3910 O   0  0
   -0.7460   -0.2600   -1.9570 C   0  0  2  0  0  0
    0.4740   -1.0820   -1.9410 C   0  0
   -1.2850   -0.0780   -3.3750 C   0  0  1  0  0  0
    1.7460   -0.4590   -1.9750 C   0  0
    0.3750   -2.4940   -1.8930 C   0  0
   -2.5940    0.5880   -3.3610 N   0  0
   -0.3050    0.6580   -4.2890 C   0  0
    2.9200   -1.2520   -1.9610 C   0  0
    1.5410   -3.2930   -1.8810 C   0  0
   -3.4450    0.4180   -4.4160 C   0  0
    2.8180   -2.6780   -1.9140 C   0  0
    4.1970   -0.6370   -1.9900 C   0  0
   -3.1250   -0.2750   -5.3520 O   0  0
   -4.7830    1.1070   -4.3830 C   0  0
    3.9940   -3.4710   -1.9040 C   0  0
    5.3650   -1.4360   -1.9800 C   0  0
   -5.4380    0.7870   -5.5430 F   0  0
   -4.6190    2.4670   -4.3110 F   0  0
   -5.5200    0.6780   -3.3090 F   0  0
    5.2640   -2.8460   -1.9370 C   0  0
    1.0310   -1.4590    6.5900 H   0  0
   -2.0960    1.0210    8.2110 H   0  0
    0.9710   -0.1780    4.4850 H   0  0
   -2.1720    2.3160    6.1150 H   0  0
   -0.8560    4.7680    2.2700 H   0  0
   -0.3970   -0.7930    2.8010 H   0  0
   -0.6840    3.2910   -0.0900 H   0  0
   -0.3300   -1.0080    0.3030 H   0  0
   -1.5160   -0.7400   -1.3530 H   0  0
   -1.3770   -1.0410   -3.8790 H   0  0
    1.8080    0.6190   -2.0100 H   0  0
   -0.5960   -2.9670   -1.8670 H   0  0
   -2.8620    1.1620   -2.5860 H   0  0
   -0.7210    0.7710   -5.2910 H   0  0
   -0.0720    1.6440   -3.8890 H   0  0
    0.6310    0.1050   -4.3770 H   0  0
    1.4430   -4.3690   -1.8440 H   0  0
    4.2950    0.4390   -2.0230 H   0  0
    3.9390   -4.5490   -1.8710 H   0  0
    6.3360   -0.9670   -2.0040 H   0  0
    6.1600   -3.4490   -1.9300 H   0  0
  1  2  1  0
  2  3  2  0
  2  4  1  0
  3  5  1  0
  4  6  2  0
  5  7  2  0
  7  8  1  0
  8  9  1  0
  8 10  1  0
  9 11  2  0
 10 12  1  0
 10 13  2  0
 12 14  2  0
 13 15  1  0
 14 16  1  0
 16 17  1  0
 18 17  1  0
 18 19  1  0
 18 20  1  0
 19 21  2  0
 19 22  1  0
 20 23  1  0
 20 24  1  0
 21 25  1  0
 22 26  2  0
 23 27  1  0
 25 28  1  0
 25 29  2  0
 27 30  2  0
 27 31  1  0
 28 32  2  0
 29 33  1  0
 31 34  1  0
 31 35  1  0
 31 36  1  0
 32 37  1  0
  6  7  1  0
 11 12  1  0
 15 16  2  0
 26 28  1  0
 33 37  2  0
  3 38  1  0
  4 39  1  0
  5 40  1  0
  6 41  1  0
 11 42  1  0
 13 43  1  0
 14 44  1  0
 15 45  1  0
 18 46  1  0
 20 47  1  0
 21 48  1  0
 22 49  1  0
 23 50  1  0
 24 51  1  0
 24 52  1  0
 24 53  1  0
 26 54  1  0
 29 55  1  0
 32 56  1  0
 33 57  1  0
 37 58  1  0
M  END
> <Name>
CHEMBL3902818

> <IC50 nM>
9

> <Molecule_ChEMBL_ID>
CHEMBL3902818

> <Smiles>
C[C@H](NC(=O)C(F)(F)F)[C@H](Oc1ccc2c(cnn2-c2ccc(F)cc2)c1)c1ccc2ccccc2c1

$$$$
CHEMBL395535
  SciTegic08162514323D

 59 61  0  0  1  0            999 V2000
   -2.2560   -2.1130    0.1910 O   0  0
   -1.1520   -1.4300   -0.3550 C   0  0  2  0  0  0
   -2.3810   -1.9410    1.5860 C   0  0
   -1.4590    0.0470   -0.4260 C   0  0
   -0.8520   -2.0290   -1.7300 C   0  0
   -1.4000   -2.8400    2.2910 C   0  0
   -0.3730    1.0700   -0.3750 C   0  0
   -2.7440    0.4420   -0.5370 C   0  0
   -0.3730   -3.4780   -1.6480 C   0  0
   -2.0000   -1.8400   -2.7210 C   0  0
   -1.0760   -2.5600    3.5650 C   0  0
   -0.7070    2.4530   -0.4450 C   0  0
    0.9820    0.6700   -0.2580 C   0  0
   -3.1460    1.9030   -0.6130 C   0  0
   -1.9980    2.8560   -0.5600 N   0  0
    0.3340    3.4180   -0.3960 C   0  0
    2.0160    1.6390   -0.2070 C   0  0
   -3.8980    2.1210   -1.9280 C   0  0
   -4.0800    2.2010    0.5630 C   0  0
    1.6840    3.0120   -0.2770 C   0  0
    3.4060    1.2250   -0.0860 C   0  0
    3.7950    0.2910    0.9000 C   0  0
    4.3670    1.7620   -0.9630 C   0  0
    2.9120   -0.2240    1.7340 O   0  0
    5.1430   -0.0940    1.0000 C   0  0
    5.7130    1.3710   -0.8570 C   0  0
    3.3850   -1.1050    2.7440 C   0  0
    6.1020    0.4440    0.1250 C   0  0
   -0.3050   -1.5620    0.3160 H   0  0
   -3.3980   -2.2090    1.8710 H   0  0
   -2.1640   -0.9000    1.8200 H   0  0
   -0.0230   -1.3630   -1.9710 H   0  0
   -0.9140   -3.7070    1.8710 H   0  0
   -3.5200   -0.3100   -0.5720 H   0  0
    0.4450   -3.5980   -0.9390 H   0  0
   -0.0230   -3.8240   -2.6230 H   0  0
   -1.1840   -4.1350   -1.3340 H   0  0
   -2.2480   -0.7890   -2.8590 H   0  0
   -2.8980   -2.3510   -2.3710 H   0  0
   -1.7400   -2.2540   -3.6950 H   0  0
   -1.4470   -1.7420    4.1640 H   0  0
   -0.3670   -3.2340    4.0200 H   0  0
    1.2340   -0.3810   -0.2050 H   0  0
   -2.2130    3.8340   -0.6130 H   0  0
    0.1110    4.4750   -0.4470 H   0  0
   -3.2700    1.9180   -2.7950 H   0  0
   -4.2500    3.1510   -2.0060 H   0  0
   -4.7680    1.4670   -1.9880 H   0  0
   -3.5820    2.0590    1.5220 H   0  0
   -4.9510    1.5490    0.5370 H   0  0
   -4.4340    3.2330    0.5220 H   0  0
    2.4550    3.7680   -0.2400 H   0  0
    4.0860    2.4770   -1.7250 H   0  0
    5.4470   -0.8060    1.7520 H   0  0
    6.4490    1.7830   -1.5310 H   0  0
    3.7770   -2.0000    2.2600 H   0  0
    4.0780   -0.5560    3.3790 H   0  0
    2.5370   -1.4060    3.3590 H   0  0
    7.1350    0.1450    0.2050 H   0  0
  2  1  1  0
  1  3  1  0
  2  4  1  0
  2  5  1  0
  3  6  1  0
  4  7  1  0
  4  8  2  0
  5  9  1  0
  5 10  1  0
  6 11  2  0
  7 12  2  0
  7 13  1  0
  8 14  1  0
 12 15  1  0
 12 16  1  0
 13 17  2  0
 14 18  1  0
 14 19  1  0
 16 20  2  0
 17 21  1  0
 21 22  2  0
 21 23  1  0
 22 24  1  0
 22 25  1  0
 23 26  2  0
 24 27  1  0
 25 28  2  0
 14 15  1  0
 17 20  1  0
 26 28  1  0
  2 29  1  0
  3 30  1  0
  3 31  1  0
  5 32  1  0
  6 33  1  0
  8 34  1  0
  9 35  1  0
  9 36  1  0
  9 37  1  0
 10 38  1  0
 10 39  1  0
 10 40  1  0
 11 41  1  0
 11 42  1  0
 13 43  1  0
 15 44  1  0
 16 45  1  0
 18 46  1  0
 18 47  1  0
 18 48  1  0
 19 49  1  0
 19 50  1  0
 19 51  1  0
 20 52  1  0
 23 53  1  0
 25 54  1  0
 26 55  1  0
 27 56  1  0
 27 57  1  0
 27 58  1  0
 28 59  1  0
M  END
> <Name>
CHEMBL395535

> <IC50 nM>
710

> <Molecule_ChEMBL_ID>
CHEMBL395535

> <Smiles>
C=CCOC(C1=CC(C)(C)Nc2ccc(-c3ccccc3OC)cc21)C(C)C

$$$$
CHEMBL236748
  SciTegic08162514323D

 51 52  0  0  1  0            999 V2000
   -4.0530   -1.3400    3.8890 F   0  0
   -3.4200   -1.8460    2.8320 C   0  0
   -2.6700   -1.0040    1.9900 C   0  0
   -3.5020   -3.2210    2.5550 C   0  0
   -2.0020   -1.5370    0.8750 C   0  0
   -2.8360   -3.7540    1.4400 C   0  0
   -2.0840   -2.9160    0.5960 C   0  0
   -1.2110   -0.6390   -0.0080 C   0  0
   -1.4610   -3.4280   -0.4470 O   0  0
    0.1410   -1.1540    0.4880 C   0  0
   -1.4430    0.8340    0.3360 C   0  0
   -1.4530   -0.9450   -1.4860 C   0  0
   -1.4750   -4.8400   -0.6050 C   0  0
    1.2640   -0.1330    0.3090 C   0  0  1  0  0  0
    1.0840    0.8930    1.2620 O   0  0
    2.5680   -0.8590    0.6290 C   0  0
    1.2660    0.5040   -1.0820 C   0  0
    2.3160   -1.8930    1.4940 F   0  0
    3.4490    0.0180    1.2110 F   0  0
    3.1130   -1.3540   -0.5270 F   0  0
    1.9610    1.8160   -1.0820 C   0  0
    1.2150    3.0080   -1.0820 C   0  0
    3.3670    1.8690   -1.0820 C   0  0
    1.8730    4.2520   -1.0820 C   0  0
    4.0250    3.1110   -1.0820 C   0  0
    3.2790    4.3030   -1.0820 C   0  0
    1.0840    5.5120   -1.0820 C   0  0
   -2.6090    0.0550    2.2050 H   0  0
   -4.0780   -3.8710    3.1970 H   0  0
   -2.9000   -4.8110    1.2310 H   0  0
    0.3950   -2.0960    0.0040 H   0  0
    0.0720   -1.4730    1.5290 H   0  0
   -2.4750    1.1350    0.1490 H   0  0
   -0.7950    1.4750   -0.2620 H   0  0
   -1.2250    1.0230    1.3870 H   0  0
   -2.4750   -1.2810   -1.6700 H   0  0
   -0.7770   -1.7290   -1.8320 H   0  0
   -1.2770   -0.0610   -2.0980 H   0  0
   -0.9450   -5.2810    0.2380 H   0  0
   -2.5060   -5.1560   -0.7480 H   0  0
   -0.9200   -5.0860   -1.5120 H   0  0
    0.5840    1.6020    0.8280 H   0  0
    0.2480    0.6310   -1.4490 H   0  0
    1.7400   -0.1580   -1.8070 H   0  0
    0.1350    2.9690   -1.0820 H   0  0
    3.9450    0.9570   -1.0820 H   0  0
    5.1040    3.1500   -1.0820 H   0  0
    3.7890    5.2540   -1.0820 H   0  0
    1.6890    6.4180   -1.0900 H   0  0
    0.4490    5.5430   -0.1950 H   0  0
    0.4360    5.5350   -1.9570 H   0  0
  1  2  1  0
  2  3  2  0
  2  4  1  0
  3  5  1  0
  4  6  2  0
  5  7  2  0
  5  8  1  0
  7  9  1  0
  8 10  1  0
  8 11  1  0
  8 12  1  0
  9 13  1  0
 10 14  1  0
 14 15  1  0
 14 16  1  0
 14 17  1  0
 16 18  1  0
 16 19  1  0
 16 20  1  0
 17 21  1  0
 21 22  2  0
 21 23  1  0
 22 24  1  0
 23 25  2  0
 24 26  2  0
 24 27  1  0
  6  7  1  0
 25 26  1  0
  3 28  1  0
  4 29  1  0
  6 30  1  0
 10 31  1  0
 10 32  1  0
 11 33  1  0
 11 34  1  0
 11 35  1  0
 12 36  1  0
 12 37  1  0
 12 38  1  0
 13 39  1  0
 13 40  1  0
 13 41  1  0
 15 42  1  0
 17 43  1  0
 17 44  1  0
 22 45  1  0
 23 46  1  0
 25 47  1  0
 26 48  1  0
 27 49  1  0
 27 50  1  0
 27 51  1  0
M  END
> <Name>
CHEMBL236748

> <IC50 nM>
580

> <Molecule_ChEMBL_ID>
CHEMBL236748

> <Smiles>
COc1ccc(F)cc1C(C)(C)CC(O)(Cc1cccc(C)c1)C(F)(F)F

$$$$
CHEMBL228766
  SciTegic08162514323D

 66 69  0  0  1  0            999 V2000
    0.1450   -1.2710   -1.3030 O   0  0
   -0.8050   -0.9410   -0.3140 C   0  0  2  0  0  0
   -0.3500   -1.1250   -2.6150 C   0  0
   -1.1110    0.5350   -0.3850 C   0  0
   -0.2400   -1.3550    1.0450 C   0  0
    0.6640   -1.6520   -3.5960 C   0  0
   -0.0250    1.5590   -0.3340 C   0  0
   -2.3950    0.9280   -0.4940 C   0  0
   -1.3130   -1.4240    2.1330 C   0  0
    0.7580   -2.9820   -3.7680 C   0  0
   -0.3570    2.9410   -0.4040 C   0  0
    1.3320    1.1580   -0.2150 C   0  0
   -2.7970    2.3910   -0.5700 C   0  0
   -2.3010   -2.4980    1.8610 C   0  0
   -1.6500    3.3440   -0.5180 N   0  0
    0.6840    3.9060   -0.3540 C   0  0
    2.3630    2.1250   -0.1660 C   0  0
   -3.5510    2.6090   -1.8870 C   0  0
   -3.7310    2.6900    0.6050 C   0  0
   -1.9220   -3.8500    1.9730 C   0  0
   -3.6190   -2.1680    1.4940 C   0  0
    2.0310    3.5000   -0.2360 C   0  0
    3.7540    1.7110   -0.0430 C   0  0
   -2.8570   -4.8650    1.7150 C   0  0
   -4.5530   -3.1860    1.2360 C   0  0
    4.1450    0.7890    0.9510 C   0  0
    4.7150    2.2400   -0.9280 C   0  0
   -4.1740   -4.5350    1.3460 C   0  0
    3.2640    0.2790    1.7910 O   0  0
    5.4920    0.4020    1.0490 C   0  0
    6.0610    1.8500   -0.8220 C   0  0
    3.6820   -0.7910    2.6250 C   0  0
    6.4490    0.9320    0.1660 C   0  0
   -1.7250   -1.4840   -0.5310 H   0  0
   -0.5230   -0.0640   -2.7970 H   0  0
   -1.2750   -1.6970   -2.6950 H   0  0
    0.5700   -0.6930    1.3460 H   0  0
    0.2910   -2.3050    0.9690 H   0  0
    1.3440   -1.0610   -4.1900 H   0  0
   -3.1720    0.1780   -0.5310 H   0  0
   -1.8300   -0.4690    2.2250 H   0  0
   -0.8590   -1.5840    3.1110 H   0  0
    1.4340   -3.5060   -4.4280 H   0  0
    0.0760   -3.5740   -3.1760 H   0  0
    1.5820    0.1070   -0.1620 H   0  0
   -1.8650    4.3200   -0.5700 H   0  0
    0.4610    4.9630   -0.4060 H   0  0
   -2.9220    2.4040   -2.7520 H   0  0
   -3.8990    3.6390   -1.9650 H   0  0
   -4.4220    1.9570   -1.9450 H   0  0
   -3.2340    2.5490    1.5640 H   0  0
   -4.6020    2.0350    0.5820 H   0  0
   -4.0880    3.7190    0.5630 H   0  0
   -0.9120   -4.1090    2.2540 H   0  0
   -3.9160   -1.1330    1.4060 H   0  0
    2.8030    4.2560   -0.1990 H   0  0
   -2.5650   -5.9020    1.7990 H   0  0
   -5.5650   -2.9320    0.9530 H   0  0
    4.4320    2.9490   -1.6930 H   0  0
   -4.8930   -5.3160    1.1480 H   0  0
    5.7970   -0.3030    1.8070 H   0  0
    6.7950    2.2580   -1.5020 H   0  0
    2.8280   -1.1090    3.2250 H   0  0
    4.1410   -1.5550    1.9980 H   0  0
    4.4430   -0.4140    3.3070 H   0  0
    7.4840    0.6310    0.2480 H   0  0
  2  1  1  0
  1  3  1  0
  2  4  1  0
  2  5  1  0
  3  6  1  0
  4  7  1  0
  4  8  2  0
  5  9  1  0
  6 10  2  0
  7 11  2  0
  7 12  1  0
  8 13  1  0
  9 14  1  0
 11 15  1  0
 11 16  1  0
 12 17  2  0
 13 18  1  0
 13 19  1  0
 14 20  2  0
 14 21  1  0
 16 22  2  0
 17 23  1  0
 20 24  1  0
 21 25  2  0
 23 26  2  0
 23 27  1  0
 24 28  2  0
 26 29  1  0
 26 30  1  0
 27 31  2  0
 29 32  1  0
 30 33  2  0
 13 15  1  0
 17 22  1  0
 25 28  1  0
 31 33  1  0
  2 34  1  0
  3 35  1  0
  3 36  1  0
  5 37  1  0
  5 38  1  0
  6 39  1  0
  8 40  1  0
  9 41  1  0
  9 42  1  0
 10 43  1  0
 10 44  1  0
 12 45  1  0
 15 46  1  0
 16 47  1  0
 18 48  1  0
 18 49  1  0
 18 50  1  0
 19 51  1  0
 19 52  1  0
 19 53  1  0
 20 54  1  0
 21 55  1  0
 22 56  1  0
 24 57  1  0
 25 58  1  0
 27 59  1  0
 28 60  1  0
 30 61  1  0
 31 62  1  0
 32 63  1  0
 32 64  1  0
 32 65  1  0
 33 66  1  0
M  END
> <Name>
CHEMBL228766

> <IC50 nM>
2000

> <Molecule_ChEMBL_ID>
CHEMBL228766

> <Smiles>
C=CCOC(CCc1ccccc1)C1=CC(C)(C)Nc2ccc(-c3ccccc3OC)cc21

$$$$
CHEMBL487116
  SciTegic08162514323D

 46 50  0  0  0  0            999 V2000
   -5.1780    2.3690   -0.0840 F   0  0
   -4.6600    1.4360    0.7170 C   0  0
   -5.3400    1.0410    1.8830 C   0  0
   -3.4260    0.8440    0.3890 C   0  0
   -4.7830    0.0570    2.7150 C   0  0
   -2.8730   -0.1410    1.2300 C   0  0
   -5.4750   -0.3500    3.9060 C   0  0
   -3.5490   -0.5390    2.3960 C   0  0
   -1.5960   -0.7500    0.8890 C   0  0
   -6.0350   -0.6780    4.8690 N   0  0
   -0.5270    0.0450    0.4100 C   0  0
   -1.4120   -2.1450    1.0290 C   0  0
    0.7320   -0.5270    0.0620 C   0  0
   -0.1700   -2.7320    0.7230 C   0  0
    0.9160   -1.9390    0.2690 C   0  0
    1.8380    0.3220   -0.5250 C   0  0
    2.1060   -2.5550    0.0410 N   0  0
    2.9860    0.4570    0.3160 O   0  0
    1.3830    1.7380   -0.8440 C   0  0
    2.2700   -0.2540   -1.8630 C   0  0
    3.3260   -1.9980    0.3650 C   0  0
    3.3950   -0.6660    1.0900 C   0  0
    0.7600    2.0450   -2.0200 O   0  0
    1.5350    2.8580   -0.0220 C   0  0
    1.4100   -0.9630   -2.6520 O   0  0
    3.5410   -0.1440   -2.4380 C   0  0
    4.3460   -2.5860    0.0880 O   0  0
    0.5160    3.3850   -1.9300 C   0  0
    0.9730    3.9240   -0.7250 C   0  0
    2.1560   -1.3030   -3.7420 C   0  0
    3.4670   -0.8220   -3.6520 C   0  0
   -6.2790    1.5000    2.1210 H   0  0
   -2.9060    1.1520   -0.5140 H   0  0
   -3.1210   -1.2990    3.0430 H   0  0
   -0.6910    1.1070    0.3090 H   0  0
   -2.2210   -2.7730    1.3770 H   0  0
   -0.0620   -3.8030    0.8480 H   0  0
    2.1040   -3.4690   -0.3690 H   0  0
    4.4120   -0.4750    1.4300 H   0  0
    2.7770   -0.7030    1.9900 H   0  0
    1.9920    2.8930    0.9590 H   0  0
    4.4020    0.3610   -2.0240 H   0  0
    0.0250    3.9510   -2.7090 H   0  0
    0.9060    4.9550   -0.4020 H   0  0
    1.7700   -1.8770   -4.5720 H   0  0
    4.2600   -0.9510   -4.3770 H   0  0
  1  2  1  0
  2  3  2  0
  2  4  1  0
  3  5  1  0
  4  6  2  0
  5  7  1  0
  5  8  2  0
  6  9  1  0
  7 10  3  0
  9 11  2  0
  9 12  1  0
 11 13  1  0
 12 14  2  0
 13 15  2  0
 13 16  1  0
 15 17  1  0
 16 18  1  0
 16 19  1  0
 16 20  1  0
 17 21  1  0
 18 22  1  0
 19 23  1  0
 19 24  2  0
 20 25  1  0
 20 26  2  0
 21 27  2  0
 23 28  1  0
 24 29  1  0
 25 30  1  0
 26 31  1  0
  6  8  1  0
 14 15  1  0
 21 22  1  0
 28 29  2  0
 30 31  2  0
  3 32  1  0
  4 33  1  0
  8 34  1  0
 11 35  1  0
 12 36  1  0
 14 37  1  0
 17 38  1  0
 22 39  1  0
 22 40  1  0
 24 41  1  0
 26 42  1  0
 28 43  1  0
 29 44  1  0
 30 45  1  0
 31 46  1  0
M  END
> <Name>
CHEMBL487116

> <IC50 nM>
1300

> <Molecule_ChEMBL_ID>
CHEMBL487116

> <Smiles>
N#Cc1cc(F)cc(-c2ccc3c(c2)C(c2ccco2)(c2ccco2)OCC(=O)N3)c1

$$$$
CHEMBL233660
  SciTegic08162514323D

 40 42  0  0  1  0            999 V2000
    2.5410    1.2290    3.1350 Cl  0  0
    1.8220   -0.3030    3.4200 C   0  0
    1.9300   -1.3400    2.4670 C   0  0
    1.1170   -0.5230    4.6170 C   0  0
    2.7970   -1.0740    0.9920 S   0  0
    1.3320   -2.5920    2.7190 C   0  0
    0.5190   -1.7720    4.8650 C   0  0
    3.2520   -2.3590    0.4920 O   0  0
    3.8810   -0.1460    1.2620 O   0  0
    1.8650   -0.3610   -0.2930 N   0  0
    1.4510   -3.8670    1.5760 Cl  0  0
    0.6270   -2.8030    3.9180 C   0  0
    0.7210   -1.1020   -0.7970 C   0  0  2  0  0  0
    0.4200   -0.7030   -2.2420 C   0  0
   -0.4830   -0.9220    0.1290 C   0  0
   -0.0100    0.7460   -2.3340 C   0  0
   -1.2700    1.2380   -2.3690 C   0  0
    0.8340    1.8710   -2.3990 C   0  0
   -1.2950    2.6070   -2.4530 C   0  0
   -2.4690    0.4820   -2.3280 C   0  0
    0.0230    3.0310   -2.4730 N   0  0
   -2.5140    3.3240   -2.5040 C   0  0
   -3.7070    1.1760   -2.3770 C   0  0
   -3.7290    2.5940   -2.4650 C   0  0
    1.0270    0.2580    5.3570 H   0  0
   -0.0220   -1.9380    5.7850 H   0  0
    1.5430    0.5740   -0.0060 H   0  0
    0.1620   -3.7560    4.1250 H   0  0
    1.0940   -2.1250   -0.7480 H   0  0
   -0.3580   -1.3400   -2.6620 H   0  0
    1.2910   -0.8650   -2.8750 H   0  0
   -0.2760   -1.3320    1.1170 H   0  0
   -0.7380    0.1330    0.2260 H   0  0
   -1.3560   -1.4410   -0.2700 H   0  0
    1.9160    1.8890   -2.3950 H   0  0
   -2.4510   -0.5960   -2.2640 H   0  0
    0.3460    3.9690   -2.5290 H   0  0
   -2.5240    4.4020   -2.5700 H   0  0
   -4.6330    0.6210   -2.3480 H   0  0
   -4.6740    3.1150   -2.5000 H   0  0
  1  2  1  0
  2  3  2  0
  2  4  1  0
  3  5  1  0
  3  6  1  0
  4  7  2  0
  5  8  2  0
  5  9  2  0
  5 10  1  0
  6 11  1  0
  6 12  2  0
 10 13  1  0
 13 14  1  0
 13 15  1  0
 14 16  1  0
 16 17  1  0
 16 18  2  0
 17 19  1  0
 17 20  2  0
 18 21  1  0
 19 22  2  0
 20 23  1  0
 22 24  1  0
  7 12  1  0
 19 21  1  0
 23 24  2  0
  4 25  1  0
  7 26  1  0
 10 27  1  0
 12 28  1  0
 13 29  1  0
 14 30  1  0
 14 31  1  0
 15 32  1  0
 15 33  1  0
 15 34  1  0
 18 35  1  0
 20 36  1  0
 21 37  1  0
 22 38  1  0
 23 39  1  0
 24 40  1  0
M  END
> <Name>
CHEMBL233660

> <IC50 nM>
240

> <Molecule_ChEMBL_ID>
CHEMBL233660

> <Smiles>
CC(Cc1c[nH]c2ccccc12)NS(=O)(=O)c1c(Cl)cccc1Cl

$$$$
CHEMBL214336
  SciTegic08162514323D

 62 65  0  0  1  0            999 V2000
   -1.6330   -2.0330    3.1250 F   0  0
   -2.3030   -1.2130    2.2540 C   0  0
   -3.4770   -1.8130    1.8730 F   0  0
   -2.5800   -0.0210    2.8710 F   0  0
   -1.4360   -0.9610    1.0210 C   0  0  3  0  0  0
   -1.1480   -2.2030    0.4220 O   0  0
   -0.1480   -0.2580    1.3590 C   0  0
   -2.1290   -0.0760   -0.0160 C   0  0
    0.5940   -0.6910    2.2090 O   0  0
    0.1700    0.8870    0.6880 N   0  0
   -1.8240   -0.5060   -1.4570 C   0  0  3  0  0  0
    1.3110    1.5350    0.9670 C   0  0
   -0.5530   -1.2970   -1.4530 C   0  0
   -1.6800    0.7580   -2.3200 C   0  0
   -3.0240   -1.3130   -2.0020 C   0  0
    1.7930    1.5900    2.3010 C   0  0
    2.0450    2.1720   -0.0680 C   0  0
   -0.5450   -2.7210   -1.6090 C   0  0
    0.6870   -0.6210   -1.2700 C   0  0
   -0.9530    0.4900   -3.6390 C   0  0
   -3.0040    1.4940   -2.5160 C   0  0
   -3.0660   -2.7230   -1.4140 C   0  0
    3.0000    2.2750    2.5920 C   0  0
    3.2500    2.8570    0.2210 C   0  0
    0.6870   -3.4240   -1.5940 C   0  0
   -1.7990   -3.4960   -1.8010 C   0  0
    1.9060   -1.3340   -1.2540 C   0  0
    3.7210    2.9040    1.5550 C   0  0
    3.5390    2.3590    3.9810 C   0  0
    1.9080   -2.7340   -1.4160 C   0  0
    4.9790    3.6090    1.9240 C   0  0
    4.6410    2.9920    4.2130 N   0  0
    2.8220    1.7110    5.1390 C   0  0
    5.6640    4.1720    1.1000 O   0  0
    5.4410    3.6660    3.1930 O   0  0
   -1.8870   -2.7990    0.6290 H   0  0
   -3.2030   -0.0470    0.1580 H   0  0
   -1.8690    0.9710    0.1370 H   0  0
   -0.4470    1.2420   -0.0160 H   0  0
   -1.1840    1.5510   -1.7620 H   0  0
   -3.9590   -0.7930   -1.7910 H   0  0
   -2.9610   -1.3890   -3.0900 H   0  0
    1.2440    1.1070    3.0980 H   0  0
    1.6950    2.1430   -1.0920 H   0  0
    0.7090    0.4510   -1.1390 H   0  0
   -0.8220    1.4000   -4.2230 H   0  0
   -1.5120   -0.2210   -4.2500 H   0  0
    0.0350    0.0680   -3.4570 H   0  0
   -2.8560    2.4100   -3.0860 H   0  0
   -3.7230    0.8630   -3.0390 H   0  0
   -3.4400    1.7680   -1.5550 H   0  0
   -3.9490   -3.2540   -1.7720 H   0  0
   -3.1580   -2.6700   -0.3280 H   0  0
    3.7990    3.3360   -0.5760 H   0  0
    0.7010   -4.4960   -1.7170 H   0  0
   -1.7600   -4.4220   -1.2250 H   0  0
   -1.8590   -3.7850   -2.8500 H   0  0
    2.8380   -0.8050   -1.1150 H   0  0
    2.8400   -3.2790   -1.4040 H   0  0
    3.3200    1.8590    6.0960 H   0  0
    2.7380    0.6390    4.9690 H   0  0
    1.8120    2.1150    5.2210 H   0  0
  1  2  1  0
  2  3  1  0
  2  4  1  0
  2  5  1  0
  5  6  1  0
  5  7  1  0
  5  8  1  0
  7  9  2  0
  7 10  1  0
  8 11  1  0
 10 12  1  0
 11 13  1  0
 11 14  1  0
 11 15  1  0
 12 16  2  0
 12 17  1  0
 13 18  2  0
 13 19  1  0
 14 20  1  0
 14 21  1  0
 15 22  1  0
 16 23  1  0
 17 24  2  0
 18 25  1  0
 18 26  1  0
 19 27  2  0
 23 28  2  0
 23 29  1  0
 25 30  2  0
 28 31  1  0
 29 32  2  0
 29 33  1  0
 31 34  2  0
 31 35  1  0
 22 26  1  0
 24 28  1  0
 27 30  1  0
 32 35  1  0
  6 36  1  0
  8 37  1  0
  8 38  1  0
 10 39  1  0
 14 40  1  0
 15 41  1  0
 15 42  1  0
 16 43  1  0
 17 44  1  0
 19 45  1  0
 20 46  1  0
 20 47  1  0
 20 48  1  0
 21 49  1  0
 21 50  1  0
 21 51  1  0
 22 52  1  0
 22 53  1  0
 24 54  1  0
 25 55  1  0
 26 56  1  0
 26 57  1  0
 27 58  1  0
 30 59  1  0
 33 60  1  0
 33 61  1  0
 33 62  1  0
M  END
> <Name>
CHEMBL214336

> <IC50 nM>
4.79

> <Molecule_ChEMBL_ID>
CHEMBL214336

> <Smiles>
Cc1noc(=O)c2ccc(NC(=O)C(O)(CC3(C(C)C)CCCc4ccccc43)C(F)(F)F)cc12

$$$$
CHEMBL378785
  SciTegic08162514323D

 56 59  0  0  1  0            999 V2000
   -0.2090    2.9960   -3.3950 F   0  0
    0.3070    1.7280   -3.4670 C   0  0
   -0.5640    0.9180   -4.1460 F   0  0
    1.5100    1.7600   -4.1230 F   0  0
    0.5140    1.1820   -2.0530 C   0  0  3  0  0  0
    1.4630    1.9960   -1.4000 O   0  0
   -0.8180    1.3160   -1.3670 C   0  0
    1.0310   -0.2560   -2.0450 C   0  0
   -1.8520    1.2090   -1.9860 O   0  0
   -0.8440    1.5620   -0.0230 N   0  0
    1.2580   -0.7970   -0.6290 C   0  0  3  0  0  0
   -2.0160    1.6850    0.6150 C   0  0
    2.5610   -1.5200   -0.5590 C   0  0
    0.0650   -1.6560   -0.1740 C   0  0
   -2.1890    2.6890    1.6060 C   0  0
   -3.0960    0.8160    0.3070 C   0  0
    2.6290   -2.9450   -0.4800 C   0  0
    3.7600   -0.7620   -0.5760 C   0  0
    0.1090   -3.0330   -0.8360 C   0  0
   -3.4320    2.8140    2.2770 C   0  0
   -4.3360    0.9410    0.9750 C   0  0
    3.9020   -3.5800   -0.4260 C   0  0
    1.3930   -3.7790   -0.4410 C   0  0
    5.0160   -1.4020   -0.5210 C   0  0
   -4.4960    1.9450    1.9610 C   0  0
   -3.6540    3.8530    3.3260 C   0  0
    5.0860   -2.8090   -0.4470 C   0  0
    4.0140   -5.0470   -0.3460 C   0  0
   -5.7750    2.1270    2.7010 C   0  0
   -4.7970    3.9410    3.9200 N   0  0
   -2.5620    4.8180    3.7150 C   0  0
   -6.7400    1.4300    2.4940 O   0  0
   -5.9430    3.0800    3.6490 O   0  0
    2.3150    1.8530   -1.8420 H   0  0
    1.9420   -0.3420   -2.6410 H   0  0
    0.3610   -0.9100   -2.6050 H   0  0
    0.0120    1.6500    0.4880 H   0  0
    1.3050    0.0620    0.0430 H   0  0
   -0.8750   -1.1560   -0.4060 H   0  0
    0.0840   -1.7760    0.9120 H   0  0
   -1.3750    3.3570    1.8500 H   0  0
   -2.9840    0.0450   -0.4450 H   0  0
    3.7190    0.3160   -0.6330 H   0  0
    0.0650   -2.9200   -1.9200 H   0  0
   -0.7640   -3.6190   -0.5510 H   0  0
   -5.1480    0.2730    0.7290 H   0  0
    1.2810   -4.1600    0.5740 H   0  0
    1.5020   -4.6510   -1.0880 H   0  0
    5.9240   -0.8170   -0.5350 H   0  0
    6.0530   -3.2930   -0.4060 H   0  0
    3.4010   -5.5000    0.4340 H   0  0
    5.0510   -5.3240   -0.1560 H   0  0
    3.7190   -5.4880   -1.2970 H   0  0
   -2.9450    5.5390    4.4380 H   0  0
   -1.7090    4.2690    4.1130 H   0  0
   -2.2250    5.3690    2.8380 H   0  0
  1  2  1  0
  2  3  1  0
  2  4  1  0
  2  5  1  0
  5  6  1  0
  5  7  1  0
  5  8  1  0
  7  9  2  0
  7 10  1  0
  8 11  1  0
 10 12  1  0
 11 13  1  0
 11 14  1  0
 12 15  2  0
 12 16  1  0
 13 17  2  0
 13 18  1  0
 14 19  1  0
 15 20  1  0
 16 21  2  0
 17 22  1  0
 17 23  1  0
 18 24  2  0
 20 25  2  0
 20 26  1  0
 22 27  2  0
 22 28  1  0
 25 29  1  0
 26 30  2  0
 26 31  1  0
 29 32  2  0
 29 33  1  0
 19 23  1  0
 21 25  1  0
 24 27  1  0
 30 33  1  0
  6 34  1  0
  8 35  1  0
  8 36  1  0
 10 37  1  0
 11 38  1  0
 14 39  1  0
 14 40  1  0
 15 41  1  0
 16 42  1  0
 18 43  1  0
 19 44  1  0
 19 45  1  0
 21 46  1  0
 23 47  1  0
 23 48  1  0
 24 49  1  0
 27 50  1  0
 28 51  1  0
 28 52  1  0
 28 53  1  0
 31 54  1  0
 31 55  1  0
 31 56  1  0
M  END
> <Name>
CHEMBL378785

> <IC50 nM>
19.95

> <Molecule_ChEMBL_ID>
CHEMBL378785

> <Smiles>
Cc1cccc2c1CCCC2CC(O)(C(=O)Nc1ccc2c(=O)onc(C)c2c1)C(F)(F)F

$$$$
CHEMBL195654
  SciTegic08162514323D

 55 59  0  0  1  0            999 V2000
    7.7520    1.4180   -3.2300 F   0  0
    6.7770    0.9280   -2.4670 C   0  0
    5.8200    1.7890   -1.9060 C   0  0
    6.7050   -0.4550   -2.2230 C   0  0
    4.7910    1.2710   -1.1010 C   0  0
    5.6780   -0.9770   -1.4180 C   0  0
    4.7170   -0.1130   -0.8550 C   0  0
    3.7250   -0.6130   -0.0760 N   0  0
    3.9020   -1.5470    0.8990 N   0  0
    2.4120   -0.2680   -0.1440 C   0  0
    2.7460   -1.8910    1.5270 C   0  0
    1.8520   -1.0780    0.8340 C   0  0
    1.6560    0.6850   -0.9840 C   0  0
    0.3380   -1.0290    1.0390 C   0  0
    0.3710    0.9140   -0.6410 C   0  0
   -0.2620    0.3440    0.6150 C   0  0  1  0  0  0
   -0.6070    1.7360   -1.4240 C   0  0
   -1.7810    0.3670    0.2580 C   0  0  2  0  0  0
    0.0290    1.3690    1.7210 C   0  0
   -1.8790    1.6760   -0.5720 C   0  0
   -2.5900    0.4350    1.4450 O   0  0
   -2.1190   -0.7250   -0.6130 O   0  0
   -3.9710    0.1210    1.2910 C   0  0
   -2.7950   -1.8110    0.0040 C   0  0  1  0  0  0
   -4.1080   -1.2680    0.6060 C   0  0
   -4.6410    1.2360    0.4770 C   0  0
   -4.5590    0.1070    2.7050 C   0  0
   -3.0200   -2.8950   -1.0510 C   0  0
    5.8730    2.8530   -2.0920 H   0  0
    7.4400   -1.1230   -2.6520 H   0  0
    4.0640    1.9510   -0.6780 H   0  0
    5.6390   -2.0410   -1.2420 H   0  0
    2.6070   -2.6020    2.3320 H   0  0
    2.1150    1.1740   -1.8320 H   0  0
    0.0800   -1.2620    2.0720 H   0  0
   -0.0610   -1.8380    0.4280 H   0  0
   -0.2540    2.7500   -1.5590 H   0  0
   -0.7640    1.2910   -2.3960 H   0  0
   -0.3360    2.3610    1.4630 H   0  0
    1.1020    1.4450    1.9020 H   0  0
   -0.4450    1.0720    2.6560 H   0  0
   -1.9080    2.5350    0.0820 H   0  0
   -2.7580    1.7270   -1.1970 H   0  0
   -2.1660   -2.2050    0.7990 H   0  0
   -4.4880   -2.0080    1.3110 H   0  0
   -4.8670   -1.2090   -0.1760 H   0  0
   -4.5470    1.0680   -0.5960 H   0  0
   -4.1880    2.2010    0.7030 H   0  0
   -5.7010    1.3010    0.7130 H   0  0
   -4.0740   -0.6350    3.3380 H   0  0
   -5.6230   -0.1230    2.6780 H   0  0
   -4.4420    1.0800    3.1820 H   0  0
   -2.0700   -3.2310   -1.4650 H   0  0
   -3.5430   -3.7480   -0.6190 H   0  0
   -3.6250   -2.5140   -1.8730 H   0  0
  1  2  1  0
  2  3  2  0
  2  4  1  0
  3  5  1  0
  4  6  2  0
  5  7  2  0
  7  8  1  0
  8  9  1  0
  8 10  1  0
  9 11  2  0
 10 12  2  0
 10 13  1  0
 12 14  1  0
 13 15  2  0
 14 16  1  0
 15 17  1  0
 16 18  1  0
 16 19  1  0
 17 20  1  0
 18 21  1  0
 18 22  1  0
 21 23  1  0
 22 24  1  0
 23 25  1  0
 23 26  1  0
 23 27  1  0
 24 28  1  0
  6  7  1  0
 11 12  1  0
 15 16  1  0
 18 20  1  0
 24 25  1  0
  3 29  1  0
  4 30  1  0
  5 31  1  0
  6 32  1  0
 11 33  1  0
 13 34  1  0
 14 35  1  0
 14 36  1  0
 17 37  1  0
 17 38  1  0
 19 39  1  0
 19 40  1  0
 19 41  1  0
 20 42  1  0
 20 43  1  0
 24 44  1  0
 25 45  1  0
 25 46  1  0
 26 47  1  0
 26 48  1  0
 26 49  1  0
 27 50  1  0
 27 51  1  0
 27 52  1  0
 28 53  1  0
 28 54  1  0
 28 55  1  0
M  END
> <Name>
CHEMBL195654

> <IC50 nM>
2.2

> <Molecule_ChEMBL_ID>
CHEMBL195654

> <Smiles>
C[C@@H]1CC(C)(C)O[C@]2(CCC3=Cc4c(cnn4-c4ccc(F)cc4)C[C@@]32C)O1

$$$$
CHEMBL1095227
  SciTegic08162514323D

 42 45  0  0  1  0            999 V2000
   -1.4410   -3.6580    4.3420 Cl  0  0
   -1.7750   -3.6910    2.6500 C   0  0
   -1.7930   -4.8960    1.9040 C   0  0
   -2.0390   -2.4670    2.0060 C   0  0
   -1.4780   -6.4320    2.6190 Cl  0  0
   -2.0760   -4.8520    0.5230 C   0  0
   -2.3180   -2.4350    0.6290 C   0  0
   -2.3380   -3.6290   -0.1110 C   0  0
   -2.5960   -1.1390   -0.0430 C   0  0  1  0  0  0
   -3.5330   -0.4060    0.7130 O   0  0
   -1.3480   -0.3690   -0.1560 C   0  0
   -3.2560   -1.3420   -1.4080 C   0  0
   -0.0980   -1.0450   -0.1860 C   0  0
   -1.3940    1.0510   -0.2320 C   0  0
   -3.7260   -0.1410   -1.8710 F   0  0
   -4.2970   -2.2250   -1.2830 F   0  0
   -2.3360   -1.8420   -2.2910 F   0  0
    1.1000   -0.2890   -0.2930 C   0  0
   -0.1970    1.7990   -0.3400 C   0  0
    1.0260    1.0880   -0.3670 C   0  0
    2.3520   -0.8790   -0.3280 C   0  0
    2.3320    1.4420   -0.4570 N   0  0
    3.0820    0.2870   -0.4340 N   0  0
    2.8300    2.7030   -0.5550 C   0  0
    2.2990    3.7360    0.2420 C   0  0
    3.8810    2.9810   -1.4510 C   0  0
    2.8150    5.0390    0.1410 C   0  0
    4.3950    4.2850   -1.5510 C   0  0
    3.8630    5.3150   -0.7560 C   0  0
    4.3500    6.5490   -0.8520 F   0  0
   -2.0290   -1.5410    2.5630 H   0  0
   -2.0940   -5.7600   -0.0640 H   0  0
   -2.5550   -3.6090   -1.1700 H   0  0
   -3.0820   -0.1110    1.5200 H   0  0
   -0.0660   -2.1250   -0.1270 H   0  0
   -2.3440    1.5650   -0.2110 H   0  0
   -0.2190    2.8770   -0.4000 H   0  0
    2.7030   -1.9020   -0.2910 H   0  0
    1.4920    3.5450    0.9360 H   0  0
    4.3030    2.2010   -2.0700 H   0  0
    2.4030    5.8280    0.7520 H   0  0
    5.2010    4.4920   -2.2400 H   0  0
  1  2  1  0
  2  3  2  0
  2  4  1  0
  3  5  1  0
  3  6  1  0
  4  7  2  0
  6  8  2  0
  7  9  1  0
  9 10  1  0
  9 11  1  0
  9 12  1  0
 11 13  2  0
 11 14  1  0
 12 15  1  0
 12 16  1  0
 12 17  1  0
 13 18  1  0
 14 19  2  0
 18 20  2  0
 18 21  1  0
 20 22  1  0
 21 23  2  0
 22 24  1  0
 24 25  2  0
 24 26  1  0
 25 27  1  0
 26 28  2  0
 27 29  2  0
 29 30  1  0
  7  8  1  0
 19 20  1  0
 22 23  1  0
 28 29  1  0
  4 31  1  0
  6 32  1  0
  8 33  1  0
 10 34  1  0
 13 35  1  0
 14 36  1  0
 19 37  1  0
 21 38  1  0
 25 39  1  0
 26 40  1  0
 27 41  1  0
 28 42  1  0
M  END
> <Name>
CHEMBL1095227

> <IC50 nM>
178

> <Molecule_ChEMBL_ID>
CHEMBL1095227

> <Smiles>
OC(c1ccc(Cl)c(Cl)c1)(c1ccc2c(cnn2-c2ccc(F)cc2)c1)C(F)(F)F

$$$$
CHEMBL4483408
  SciTegic08162514323D

 90 95  0  0  1  0            999 V2000
    2.5040   -2.2870   -7.7700 S   0  0
    1.1970   -2.8110   -7.4120 O   0  0
    2.6640   -2.0780   -9.1970 O   0  0
    2.6050   -0.7070   -7.0370 N   0  0
    3.7580   -3.4340   -7.2090 C   0  0
    1.3480    0.0120   -6.7950 C   0  0
    3.5080   -0.5470   -5.8890 C   0  0
    0.6190   -0.5270   -5.5490 C   0  0
    2.8850   -1.1150   -4.5980 C   0  0
    1.5230   -0.5680   -4.3750 N   0  0
    1.1230   -0.1210   -3.1430 C   0  0
    2.0470    0.5060   -2.2850 C   0  0
   -0.2130   -0.2890   -2.7300 C   0  0
    1.6350    0.9650   -1.0210 C   0  0
   -0.6230    0.1700   -1.4670 C   0  0
    0.2990    0.7970   -0.6130 C   0  0
   -0.1370    1.2830    0.7290 C   0  0  2  0  0  0
    0.7580    0.7770    1.9000 C   0  0  2  0  0  0
   -1.6430    1.0060    0.9770 C   0  0
    2.2850    0.9590    1.6560 C   0  0  2  0  0  0
    0.4260   -0.6780    2.3050 C   0  0  2  0  0  0
   -1.8990   -0.4820    1.3090 C   0  0  1  0  0  0
    3.1800    0.2790    2.6880 C   0  0
    2.6480    2.4590    1.5160 C   0  0
   -1.0880   -0.7990    2.5720 C   0  0  1  0  0  0
    1.2030   -1.0660    3.5720 C   0  0
   -3.3110   -0.9410    1.7520 C   0  0  2  0  0  0
   -1.4450   -1.4080    0.1660 C   0  0
    4.4020    0.7770    2.9920 C   0  0
    2.7150   -0.9920    3.3670 C   0  0
    4.1520    2.6740    1.2870 C   0  0
   -1.5820   -2.1990    2.9630 C   0  0
   -4.1620   -1.1500    0.6310 O   0  0
   -3.9830    0.0040    2.6350 C   0  0
   -3.0310   -2.2790    2.4650 C   0  0
    4.9690    1.9690    2.3420 C   0  0
   -4.5330    0.7810    3.3460 C   0  0
    6.0820    2.3730    2.6500 O   0  0
   -5.2090    1.7460    4.2130 C   0  0
   -4.2680    2.9380    4.4220 C   0  0
   -6.4980    2.1990    3.5160 C   0  0
   -5.5270    1.0590    5.5490 C   0  0
    3.7110   -4.4140   -7.6820 H   0  0
    3.6640   -3.5760   -6.1330 H   0  0
    4.7440   -3.0160   -7.4060 H   0  0
    1.5680    1.0720   -6.6700 H   0  0
    0.7110   -0.0680   -7.6780 H   0  0
    4.4570   -1.0410   -6.1040 H   0  0
    3.7300    0.5120   -5.7620 H   0  0
   -0.2640    0.0820   -5.3420 H   0  0
    0.2640   -1.5410   -5.7380 H   0  0
    2.8050   -2.1990   -4.6700 H   0  0
    3.5350   -0.9040   -3.7460 H   0  0
    3.0760    0.6440   -2.5820 H   0  0
   -0.9380   -0.7680   -3.3750 H   0  0
    2.3480    1.4450   -0.3670 H   0  0
   -1.6500    0.0390   -1.1580 H   0  0
   -0.0290    2.3690    0.6800 H   0  0
    0.5060    1.3930    2.7600 H   0  0
   -2.2360    1.3070    0.1110 H   0  0
   -1.9770    1.6520    1.7830 H   0  0
    2.5270    0.4800    0.7110 H   0  0
    0.7230   -1.3440    1.5020 H   0  0
    2.1040    2.9220    0.6910 H   0  0
    2.3590    3.0040    2.4140 H   0  0
   -1.3480   -0.1210    3.3790 H   0  0
    0.9410   -2.0800    3.8870 H   0  0
    0.9200   -0.4160    4.3970 H   0  0
   -1.4140   -2.4510    0.4790 H   0  0
   -0.4490   -1.1330   -0.1800 H   0  0
   -2.1250   -1.3320   -0.6820 H   0  0
    5.0020    0.2690    3.7440 H   0  0
    3.0370   -1.8360    2.7600 H   0  0
    3.2070   -1.1130    4.3340 H   0  0
    4.4220    2.2730    0.3050 H   0  0
    4.3850    3.7380    1.2790 H   0  0
   -0.9750   -2.9550    2.4810 H   0  0
   -1.5120   -2.3750    4.0290 H   0  0
   -4.9810   -1.5490    0.9650 H   0  0
   -3.1190   -3.1170    1.7930 H   0  0
   -3.7150   -2.4750    3.2720 H   0  0
   -3.3380    2.6410    4.9100 H   0  0
   -4.7400    3.6990    5.0430 H   0  0
   -4.0100    3.3980    3.4690 H   0  0
   -7.1780    1.3650    3.3360 H   0  0
   -6.2740    2.6580    2.5530 H   0  0
   -7.0260    2.9360    4.1210 H   0  0
   -6.1970    0.2130    5.3970 H   0  0
   -4.6150    0.7090    6.0290 H   0  0
   -6.0200    1.7540    6.2310 H   0  0
  1  2  2  0
  1  3  2  0
  1  4  1  0
  1  5  1  0
  4  6  1  0
  4  7  1  0
  6  8  1  0
  7  9  1  0
  8 10  1  0
 10 11  1  0
 11 12  2  0
 11 13  1  0
 12 14  1  0
 13 15  2  0
 14 16  2  0
 17 16  1  0
 18 17  1  0
 17 19  1  0
 18 20  1  0
 18 21  1  0
 19 22  1  0
 20 23  1  0
 20 24  1  0
 21 25  1  0
 21 26  1  0
 22 27  1  0
 22 28  1  0
 23 29  2  0
 23 30  1  0
 24 31  1  0
 25 32  1  0
 27 33  1  0
 27 34  1  0
 27 35  1  0
 29 36  1  0
 34 37  3  0
 36 38  2  0
 37 39  1  0
 39 40  1  0
 39 41  1  0
 39 42  1  0
  9 10  1  0
 15 16  1  0
 22 25  1  0
 26 30  1  0
 31 36  1  0
 32 35  1  0
  5 43  1  0
  5 44  1  0
  5 45  1  0
  6 46  1  0
  6 47  1  0
  7 48  1  0
  7 49  1  0
  8 50  1  0
  8 51  1  0
  9 52  1  0
  9 53  1  0
 12 54  1  0
 13 55  1  0
 14 56  1  0
 15 57  1  0
 17 58  1  0
 18 59  1  0
 19 60  1  0
 19 61  1  0
 20 62  1  0
 21 63  1  0
 24 64  1  0
 24 65  1  0
 25 66  1  0
 26 67  1  0
 26 68  1  0
 28 69  1  0
 28 70  1  0
 28 71  1  0
 29 72  1  0
 30 73  1  0
 30 74  1  0
 31 75  1  0
 31 76  1  0
 32 77  1  0
 32 78  1  0
 33 79  1  0
 35 80  1  0
 35 81  1  0
 40 82  1  0
 40 83  1  0
 40 84  1  0
 41 85  1  0
 41 86  1  0
 41 87  1  0
 42 88  1  0
 42 89  1  0
 42 90  1  0
M  END
> <Name>
CHEMBL4483408

> <IC50 nM>
12.2

> <Molecule_ChEMBL_ID>
CHEMBL4483408

> <Smiles>
CC(C)(C)C#C[C@]1(O)CC[C@H]2[C@@H]3CCC4=CC(=O)CC[C@@H]4[C@H]3[C@@H](c3ccc(N4CCN(S(C)(=O)=O)CC4)cc3)C[C@@]21C

$$$$
CHEMBL4159987
  SciTegic08162514323D

 78 82  0  0  1  0            999 V2000
   -6.4400   -0.9330   -2.3200 O   0  0
   -5.4310   -0.6840   -1.7020 C   0  0
   -4.7840   -1.7160   -0.8760 C   0  0
   -4.7970    0.6820   -1.7550 C   0  0
   -3.5880   -1.5300   -0.2750 C   0  0
   -3.2710    0.5720   -1.6840 C   0  0
   -2.7810   -0.2460   -0.4640 C   0  0  2  0  0  0
   -3.0200   -2.6060    0.6280 C   0  0
   -1.2460   -0.4970   -0.5470 C   0  0  1  0  0  0
   -1.5130   -2.8100    0.4490 C   0  0
   -0.3960    0.8050   -0.6080 C   0  0  1  0  0  0
   -0.7530   -1.4790    0.5450 C   0  0  1  0  0  0
   -0.7310    1.7710    0.4710 C   0  0
    1.1220    0.5080   -0.6600 C   0  0
    0.7510   -1.7300    0.3460 C   0  0  1  0  0  0
   -0.2970    3.1050    0.3800 C   0  0
   -1.4820    1.3500    1.5820 C   0  0
    1.5770   -0.4420    0.4680 C   0  0  1  0  0  0
    1.4400   -2.6580    1.3480 C   0  0
   -0.6140    4.0190    1.4000 C   0  0
   -1.7990    2.2630    2.6030 C   0  0
    3.0220   -1.0130    0.4140 C   0  0  2  0  0  0
    1.3520    0.1890    1.8540 C   0  0
    2.9190   -2.2460    1.3400 C   0  0
   -1.3660    3.6000    2.5150 C   0  0
    3.9700   -0.0850    0.9150 O   0  0
    3.4480   -1.3980   -0.9420 C   0  0
   -1.6750    4.4900    3.5090 N   0  0
    3.8020   -1.7110   -2.0340 C   0  0
   -2.8390    4.2500    4.3740 C   0  0
   -0.8570    5.6910    3.7310 C   0  0
    4.2440   -2.0940   -3.3710 C   0  0
    3.2680   -3.1260   -3.9350 C   0  0
    4.2660   -0.8510   -4.2610 C   0  0
    5.6470   -2.6950   -3.2770 C   0  0
   -5.2990   -2.6580   -0.7460 H   0  0
   -5.0950    1.1970   -2.6690 H   0  0
   -5.1670    1.2770   -0.9200 H   0  0
   -2.8480    1.5760   -1.6610 H   0  0
   -2.9070    0.1080   -2.6020 H   0  0
   -2.9830    0.3510    0.4260 H   0  0
   -3.2220   -2.3230    1.6630 H   0  0
   -3.5350   -3.5560    0.4660 H   0  0
   -1.0780   -1.0050   -1.4990 H   0  0
   -1.1570   -3.5110    1.2040 H   0  0
   -1.3250   -3.2770   -0.5190 H   0  0
   -0.6380    1.3200   -1.5370 H   0  0
   -0.9340   -1.0480    1.5300 H   0  0
    1.7050    1.4310   -0.6350 H   0  0
    1.3340    0.0580   -1.6320 H   0  0
    0.8840   -2.1560   -0.6410 H   0  0
    0.2800    3.4320   -0.4720 H   0  0
   -1.8170    0.3260    1.6560 H   0  0
    1.0260   -2.5240    2.3360 H   0  0
    1.3120   -3.6970    1.0840 H   0  0
   -0.2720    5.0410    1.3130 H   0  0
   -2.3780    1.9210    3.4510 H   0  0
    0.3160    0.0940    2.1800 H   0  0
    1.6010    1.2500    1.8390 H   0  0
    1.9830   -0.2910    2.6020 H   0  0
    3.2170   -2.0040    2.3520 H   0  0
    3.5590   -3.0610    1.0280 H   0  0
    3.8240    0.7530    0.4490 H   0  0
   -3.4900    3.4380    4.0510 H   0  0
   -3.4390    5.1580    4.4270 H   0  0
   -2.4940    4.0190    5.3830 H   0  0
    0.1420    5.5240    3.3280 H   0  0
   -1.3630    6.5540    3.2970 H   0  0
   -0.7600    5.8660    4.8020 H   0  0
    3.2170   -4.0200   -3.3130 H   0  0
    3.5700   -3.4340   -4.9370 H   0  0
    2.2640   -2.7090   -4.0030 H   0  0
    4.9420   -0.0880   -3.8750 H   0  0
    3.2710   -0.4110   -4.3320 H   0  0
    4.5910   -1.1050   -5.2700 H   0  0
    6.3650   -1.9880   -2.8600 H   0  0
    6.0060   -2.9940   -4.2620 H   0  0
    5.6440   -3.5810   -2.6410 H   0  0
  1  2  2  0
  2  3  1  0
  2  4  1  0
  3  5  2  0
  4  6  1  0
  5  7  1  0
  5  8  1  0
  9  7  1  0
  8 10  1  0
  9 11  1  0
  9 12  1  0
 11 13  1  0
 11 14  1  0
 12 15  1  0
 13 16  2  0
 13 17  1  0
 14 18  1  0
 15 19  1  0
 16 20  1  0
 17 21  2  0
 18 22  1  0
 18 23  1  0
 19 24  1  0
 20 25  2  0
 22 26  1  0
 22 27  1  0
 25 28  1  0
 27 29  3  0
 28 30  1  0
 28 31  1  0
 29 32  1  0
 32 33  1  0
 32 34  1  0
 32 35  1  0
  7  6  1  0
 12 10  1  0
 15 18  1  0
 21 25  1  0
 22 24  1  0
  3 36  1  0
  4 37  1  0
  4 38  1  0
  6 39  1  0
  6 40  1  0
  7 41  1  0
  8 42  1  0
  8 43  1  0
  9 44  1  0
 10 45  1  0
 10 46  1  0
 11 47  1  0
 12 48  1  0
 14 49  1  0
 14 50  1  0
 15 51  1  0
 16 52  1  0
 17 53  1  0
 19 54  1  0
 19 55  1  0
 20 56  1  0
 21 57  1  0
 23 58  1  0
 23 59  1  0
 23 60  1  0
 24 61  1  0
 24 62  1  0
 26 63  1  0
 30 64  1  0
 30 65  1  0
 30 66  1  0
 31 67  1  0
 31 68  1  0
 31 69  1  0
 33 70  1  0
 33 71  1  0
 33 72  1  0
 34 73  1  0
 34 74  1  0
 34 75  1  0
 35 76  1  0
 35 77  1  0
 35 78  1  0
M  END
> <Name>
CHEMBL4159987

> <IC50 nM>
5.6

> <Molecule_ChEMBL_ID>
CHEMBL4159987

> <Smiles>
CN(C)c1ccc([C@H]2C[C@@]3(C)[C@@H](CC[C@@]3(O)C#CC(C)(C)C)[C@@H]3CCC4=CC(=O)CC[C@@H]4[C@H]32)cc1

$$$$
CHEMBL386806
  SciTegic08162514323D

 53 56  0  0  1  0            999 V2000
    3.8910   -1.2520   -0.4420 F   0  0
    3.4300   -2.4710   -0.1720 C   0  0
    2.0290   -2.7170   -0.1130 C   0  0
    4.3520   -3.5200    0.0570 C   0  0
    1.5640   -4.0350    0.1930 C   0  0
    1.0760   -1.6000   -0.3850 C   0  0  3  0  0  0
    3.8890   -4.8190    0.3480 C   0  0
    2.5020   -5.0740    0.4180 C   0  0
    0.1130   -4.3500    0.2970 C   0  0
   -0.3540   -1.8850    0.1130 C   0  0
    1.0700   -1.2700   -1.8830 C   0  0
   -0.8050   -3.2810   -0.3150 C   0  0
    1.0160    0.2340   -2.1540 C   0  0  3  0  0  0
    2.1760    0.8240   -1.6110 O   0  0
   -0.2030    0.8810   -1.5570 C   0  0
    0.9690    0.5620   -3.6490 C   0  0
   -1.2300    0.9760   -2.1880 O   0  0
   -0.1310    1.3650   -0.2810 N   0  0
    0.8790    1.9200   -3.8150 F   0  0
   -0.1250   -0.0410   -4.2130 F   0  0
    2.1090    0.1010   -4.2540 F   0  0
   -1.2030    1.9470    0.2770 C   0  0
   -1.0510    3.1130    1.0740 C   0  0
   -2.5000    1.4020    0.0760 C   0  0
   -2.1880    3.7230    1.6620 C   0  0
   -3.6350    2.0120    0.6620 C   0  0
   -3.4690    3.1720    1.4550 C   0  0
   -2.0700    4.9470    2.5080 C   0  0
   -4.6230    3.8590    2.1000 C   0  0
   -3.1230    5.4780    3.0290 N   0  0
   -0.7300    5.5900    2.7710 C   0  0
   -5.7580    3.4610    1.9750 O   0  0
   -4.4820    4.9690    2.8610 O   0  0
    5.4120   -3.3260    0.0080 H   0  0
    1.4240   -0.7130    0.1460 H   0  0
    4.5940   -5.6190    0.5170 H   0  0
    2.1580   -6.0740    0.6440 H   0  0
   -0.1290   -4.4650    1.3550 H   0  0
   -0.0980   -5.3130   -0.1720 H   0  0
   -1.0450   -1.1310   -0.2680 H   0  0
   -0.3910   -1.8090    1.2010 H   0  0
    1.9300   -1.7210   -2.3790 H   0  0
    0.2520   -1.7830   -2.3870 H   0  0
   -0.7910   -3.3580   -1.4020 H   0  0
   -1.8360   -3.4570   -0.0080 H   0  0
    2.9380    0.3730   -2.0060 H   0  0
    0.7190    1.2850    0.2380 H   0  0
   -0.0680    3.5370    1.2320 H   0  0
   -2.6390    0.5160   -0.5260 H   0  0
   -4.6150    1.5880    0.5000 H   0  0
   -0.8610    6.4790    3.3890 H   0  0
   -0.0610    4.8690    3.2420 H   0  0
   -0.2770    5.9000    1.8300 H   0  0
  1  2  1  0
  2  3  2  0
  2  4  1  0
  3  5  1  0
  3  6  1  0
  4  7  2  0
  5  8  2  0
  5  9  1  0
  6 10  1  0
  6 11  1  0
  9 12  1  0
 11 13  1  0
 13 14  1  0
 13 15  1  0
 13 16  1  0
 15 17  2  0
 15 18  1  0
 16 19  1  0
 16 20  1  0
 16 21  1  0
 18 22  1  0
 22 23  2  0
 22 24  1  0
 23 25  1  0
 24 26  2  0
 25 27  2  0
 25 28  1  0
 27 29  1  0
 28 30  2  0
 28 31  1  0
 29 32  2  0
 29 33  1  0
  7  8  1  0
 10 12  1  0
 26 27  1  0
 30 33  1  0
  4 34  1  0
  6 35  1  0
  7 36  1  0
  8 37  1  0
  9 38  1  0
  9 39  1  0
 10 40  1  0
 10 41  1  0
 11 42  1  0
 11 43  1  0
 12 44  1  0
 12 45  1  0
 14 46  1  0
 18 47  1  0
 23 48  1  0
 24 49  1  0
 26 50  1  0
 31 51  1  0
 31 52  1  0
 31 53  1  0
M  END
> <Name>
CHEMBL386806

> <IC50 nM>
31.62

> <Molecule_ChEMBL_ID>
CHEMBL386806

> <Smiles>
Cc1noc(=O)c2ccc(NC(=O)C(O)(CC3CCCc4cccc(F)c43)C(F)(F)F)cc12

$$$$
CHEMBL372684
  SciTegic08162514323D

 57 62  0  0  1  0            999 V2000
    4.1410   -4.8010    0.5410 S   0  0
    3.6640   -4.5820   -1.0840 C   0  0
    2.7190   -3.8480    0.8790 C   0  0
    2.5140   -3.8420   -1.3380 C   0  0
    4.3930   -5.1210   -2.1720 C   0  0
    1.9100   -3.3790   -0.1800 C   0  0
    2.0430   -3.6090   -2.6520 C   0  0
    3.9450   -4.9040   -3.5000 C   0  0
    0.6500   -2.5430   -0.0590 C   0  0  1  0  0  0
    2.7710   -4.1480   -3.7380 C   0  0
   -0.2250   -3.1460    0.8670 O   0  0
    0.9690   -1.1270    0.4360 C   0  0  2  0  0  0
   -0.1560   -0.1110    0.1040 C   0  0  2  0  0  0
    2.3630   -0.6800   -0.0630 C   0  0
    0.2090    1.2540    0.7110 C   0  0
   -1.5370   -0.6520    0.6040 C   0  0
   -0.2400    0.0860   -1.4180 C   0  0
    2.5510    0.8460   -0.1170 C   0  0
   -0.7440    2.1490    1.0610 C   0  0
    1.6740    1.5900    0.8960 C   0  0
   -2.5880    0.4430    0.7320 C   0  0
   -2.1560    1.7360    0.9650 C   0  0
   -3.9690    0.2720    0.6580 C   0  0
   -3.3320    2.4120    1.0680 N   0  0
   -4.3690    1.5530    0.8830 N   0  0
   -3.4650    3.7400    1.3140 C   0  0
   -2.6520    4.6700    0.6350 C   0  0
   -4.4160    4.1950    2.2480 C   0  0
   -2.7910    6.0450    0.8910 C   0  0
   -4.5530    5.5700    2.5020 C   0  0
   -3.7420    6.4960    1.8240 C   0  0
   -3.8730    7.7990    2.0640 F   0  0
    2.4630   -3.6210    1.9060 H   0  0
    5.2870   -5.6990   -1.9900 H   0  0
    1.1460   -3.0330   -2.8340 H   0  0
    4.5020   -5.3160   -4.3280 H   0  0
    0.1460   -2.5020   -1.0230 H   0  0
    2.4320   -3.9840   -4.7520 H   0  0
   -0.4880   -4.0040    0.4960 H   0  0
    1.0270   -1.1840    1.5230 H   0  0
    3.1230   -1.1190    0.5860 H   0  0
    2.5570   -1.0840   -1.0590 H   0  0
   -1.4220   -1.1020    1.5920 H   0  0
   -1.9040   -1.4430   -0.0530 H   0  0
   -0.8050    0.9880   -1.6600 H   0  0
    0.7560    0.1640   -1.8540 H   0  0
   -0.7440   -0.7580   -1.8890 H   0  0
    2.2970    1.1990   -1.1170 H   0  0
    3.6020    1.0980    0.0290 H   0  0
   -0.4810    3.1390    1.4020 H   0  0
    1.9750    1.3280    1.9100 H   0  0
    1.8300    2.6640    0.7890 H   0  0
   -4.5840   -0.6020    0.4820 H   0  0
   -1.9160    4.3440   -0.0860 H   0  0
   -5.0510    3.4980    2.7790 H   0  0
   -2.1660    6.7540    0.3670 H   0  0
   -5.2850    5.9120    3.2190 H   0  0
  1  2  1  0
  1  3  1  0
  2  4  1  0
  2  5  2  0
  3  6  2  0
  4  7  2  0
  5  8  1  0
  6  9  1  0
  7 10  1  0
  9 11  1  0
  9 12  1  0
 12 13  1  0
 12 14  1  0
 13 15  1  0
 13 16  1  0
 13 17  1  0
 14 18  1  0
 15 19  2  0
 15 20  1  0
 16 21  1  0
 19 22  1  0
 21 23  1  0
 22 24  1  0
 23 25  2  0
 24 26  1  0
 26 27  2  0
 26 28  1  0
 27 29  1  0
 28 30  2  0
 29 31  2  0
 31 32  1  0
  4  6  1  0
  8 10  2  0
 18 20  1  0
 21 22  2  0
 24 25  1  0
 30 31  1  0
  3 33  1  0
  5 34  1  0
  7 35  1  0
  8 36  1  0
  9 37  1  0
 10 38  1  0
 11 39  1  0
 12 40  1  0
 14 41  1  0
 14 42  1  0
 16 43  1  0
 16 44  1  0
 17 45  1  0
 17 46  1  0
 17 47  1  0
 18 48  1  0
 18 49  1  0
 19 50  1  0
 20 51  1  0
 20 52  1  0
 23 53  1  0
 27 54  1  0
 28 55  1  0
 29 56  1  0
 30 57  1  0
M  END
> <Name>
CHEMBL372684

> <IC50 nM>
1.5

> <Molecule_ChEMBL_ID>
CHEMBL372684

> <Smiles>
C[C@]12Cc3cnn(-c4ccc(F)cc4)c3C=C1CCC[C@@H]2[C@H](O)c1csc2ccccc12

$$$$
CHEMBL3126933
  SciTegic08162514323D

 59 62  0  0  1  0            999 V2000
    7.9080   -0.1190    2.2360 F   0  0
    7.0040   -0.2130    1.2640 C   0  0
    5.6540   -0.4430    1.5780 C   0  0
    7.4010   -0.0800   -0.0780 C   0  0
    4.6970   -0.5430    0.5510 C   0  0
    6.4470   -0.1780   -1.1050 C   0  0
    5.0960   -0.4080   -0.7950 C   0  0
    3.2720   -0.7870    0.9020 C   0  0
    4.1000   -0.5100   -1.8950 C   0  0
    2.8600    0.6740    0.7190 C   0  0
    3.1210   -1.2670    2.3460 C   0  0
    2.5980   -1.7210   -0.1040 C   0  0
    1.3420    0.8630    0.7300 C   0  0  1  0  0  0
    0.7520   -0.3260    1.2070 O   0  0
    1.0490    1.9790    1.7340 C   0  0
    0.7740    1.1560   -0.6580 C   0  0
    1.5680    1.6410    2.9570 F   0  0
   -0.3070    2.1510    1.8460 F   0  0
    1.6230    3.1450    1.3010 F   0  0
   -0.7380    1.0630   -0.6620 C   0  0
   -1.5900    2.1720   -0.6390 N   0  0
   -1.5510   -0.0740   -0.6910 C   0  0
   -2.8810    1.6700   -0.6500 C   0  0
   -2.8610    0.2930   -0.6840 C   0  0
   -3.9610    2.5100   -0.6310 N   0  0
   -4.0610   -0.3910   -0.6990 N   0  0
   -5.1760    1.8170   -0.6480 C   0  0
   -5.2380    0.3750   -0.6820 C   0  0
   -6.5250   -0.2990   -0.6970 C   0  0
   -7.7150    0.4530   -0.7010 C   0  0
   -6.5860   -1.7070   -0.7110 C   0  0
   -8.9610   -0.1990   -0.7170 C   0  0
   -7.8320   -2.3550   -0.7270 C   0  0
   -9.0200   -1.6030   -0.7290 C   0  0
    5.3520   -0.5450    2.6090 H   0  0
    8.4380    0.0980   -0.3240 H   0  0
    6.7580   -0.0740   -2.1350 H   0  0
    3.8260   -1.5550   -2.0430 H   0  0
    3.2400    0.1230   -1.6660 H   0  0
    4.5430   -0.1460   -2.8220 H   0  0
    3.2910    1.0860   -0.1910 H   0  0
    3.3320    1.3050    1.4730 H   0  0
    3.8380   -2.0530    2.5900 H   0  0
    2.1210   -1.6640    2.5180 H   0  0
    3.2790   -0.4450    3.0430 H   0  0
    1.7950   -2.3010    0.3540 H   0  0
    3.3190   -2.4240   -0.5210 H   0  0
    2.1680   -1.1540   -0.9300 H   0  0
   -0.1330   -0.0960    1.5330 H   0  0
    1.1820    0.4630   -1.3950 H   0  0
    1.0780    2.1450   -0.9980 H   0  0
   -1.3120    3.1270   -0.6150 H   0  0
   -1.1910   -1.0960   -0.7150 H   0  0
   -6.0900    2.3930   -0.6350 H   0  0
   -7.6880    1.5350   -0.6890 H   0  0
   -5.6840   -2.3010   -0.7110 H   0  0
   -9.8730    0.3790   -0.7170 H   0  0
   -7.8790   -3.4350   -0.7380 H   0  0
   -9.9770   -2.1030   -0.7420 H   0  0
  1  2  1  0
  2  3  2  0
  2  4  1  0
  3  5  1  0
  4  6  2  0
  5  7  2  0
  5  8  1  0
  7  9  1  0
  8 10  1  0
  8 11  1  0
  8 12  1  0
 10 13  1  0
 13 14  1  0
 13 15  1  0
 13 16  1  0
 15 17  1  0
 15 18  1  0
 15 19  1  0
 16 20  1  0
 20 21  1  0
 20 22  2  0
 21 23  1  0
 22 24  1  0
 23 25  1  0
 24 26  1  0
 25 27  2  0
 26 28  2  0
 28 29  1  0
 29 30  2  0
 29 31  1  0
 30 32  1  0
 31 33  2  0
 32 34  2  0
  6  7  1  0
 23 24  2  0
 27 28  1  0
 33 34  1  0
  3 35  1  0
  4 36  1  0
  6 37  1  0
  9 38  1  0
  9 39  1  0
  9 40  1  0
 10 41  1  0
 10 42  1  0
 11 43  1  0
 11 44  1  0
 11 45  1  0
 12 46  1  0
 12 47  1  0
 12 48  1  0
 14 49  1  0
 16 50  1  0
 16 51  1  0
 21 52  1  0
 22 53  1  0
 27 54  1  0
 30 55  1  0
 31 56  1  0
 32 57  1  0
 33 58  1  0
 34 59  1  0
M  END
> <Name>
CHEMBL3126933

> <IC50 nM>
11

> <Molecule_ChEMBL_ID>
CHEMBL3126933

> <Smiles>
Cc1ccc(F)cc1C(C)(C)CC(O)(Cc1cc2nc(-c3ccccc3)cnc2[nH]1)C(F)(F)F

$$$$
CHEMBL4067685
  SciTegic08162514323D

 51 54  0  0  0  0            999 V2000
   -3.5680    3.6090    4.2970 Br  0  0
   -2.0720    2.7280    3.5660 C   0  0
   -1.7770    1.4020    3.9430 C   0  0
   -1.2420    3.3930    2.6430 C   0  0
   -0.6620    0.7460    3.3960 C   0  0
   -0.1270    2.7340    2.0980 C   0  0
    0.1620    1.4120    2.4750 C   0  0
    1.5330    0.6050    1.8050 S   0  0
    1.4380   -0.8070    2.1330 O   0  0
    2.7340    1.2340    2.3280 O   0  0
    1.5820    0.7300    0.1910 N   0  0
    0.4300    0.6130   -0.5390 C   0  0
    2.8630    0.9690   -0.4900 C   0  0
    0.3090    1.2710   -1.7790 C   0  0
   -0.6390   -0.1640   -0.0550 C   0  0
    3.9430    0.1110    0.0620 C   0  0
   -0.8750    1.1480   -2.5270 C   0  0
   -1.8200   -0.2830   -0.8070 C   0  0
    3.8770   -1.2870   -0.0820 C   0  0
    5.0330    0.6950    0.7300 C   0  0
   -1.9410    0.3730   -2.0430 C   0  0
    4.8990   -2.0980    0.4410 C   0  0
    6.0570   -0.1150    1.2520 C   0  0
   -3.0510    0.2600   -2.7460 O   0  0
    5.9880   -1.5120    1.1070 C   0  0
   -3.6680   -0.9040   -2.7460 C   0  0
   -5.0720   -0.9590   -2.7460 C   0  0
   -2.9240   -2.0980   -2.7460 C   0  0
   -5.7320   -2.2010   -2.7460 C   0  0
   -3.5820   -3.3400   -2.7460 C   0  0
   -4.9860   -3.3910   -2.7460 C   0  0
   -2.4020    0.8770    4.6520 H   0  0
   -1.4530    4.4100    2.3420 H   0  0
   -0.4390   -0.2700    3.6850 H   0  0
    0.5080    3.2480    1.3910 H   0  0
    3.1390    2.0180   -0.3790 H   0  0
    2.7460    0.7660   -1.5550 H   0  0
    1.1170    1.8730   -2.1700 H   0  0
   -0.5660   -0.6780    0.8940 H   0  0
   -0.9630    1.6560   -3.4770 H   0  0
   -2.6370   -0.8810   -0.4300 H   0  0
    3.0410   -1.7420   -0.5940 H   0  0
    5.0920    1.7680    0.8460 H   0  0
    4.8480   -3.1700    0.3300 H   0  0
    6.8930    0.3340    1.7660 H   0  0
    6.7740   -2.1350    1.5100 H   0  0
   -5.6500   -0.0450   -2.7460 H   0  0
   -1.8440   -2.0630   -2.7460 H   0  0
   -6.8110   -2.2400   -2.7460 H   0  0
   -3.0080   -4.2560   -2.7460 H   0  0
   -5.4920   -4.3460   -2.7460 H   0  0
  1  2  1  0
  2  3  2  0
  2  4  1  0
  3  5  1  0
  4  6  2  0
  5  7  2  0
  7  8  1  0
  8  9  2  0
  8 10  2  0
  8 11  1  0
 11 12  1  0
 11 13  1  0
 12 14  2  0
 12 15  1  0
 13 16  1  0
 14 17  1  0
 15 18  2  0
 16 19  2  0
 16 20  1  0
 17 21  2  0
 19 22  1  0
 20 23  2  0
 21 24  1  0
 22 25  2  0
 24 26  1  0
 26 27  2  0
 26 28  1  0
 27 29  1  0
 28 30  2  0
 29 31  2  0
  6  7  1  0
 18 21  1  0
 23 25  1  0
 30 31  1  0
  3 32  1  0
  4 33  1  0
  5 34  1  0
  6 35  1  0
 13 36  1  0
 13 37  1  0
 14 38  1  0
 15 39  1  0
 17 40  1  0
 18 41  1  0
 19 42  1  0
 20 43  1  0
 22 44  1  0
 23 45  1  0
 25 46  1  0
 27 47  1  0
 28 48  1  0
 29 49  1  0
 30 50  1  0
 31 51  1  0
M  END
> <Name>
CHEMBL4067685

> <IC50 nM>
30000

> <Molecule_ChEMBL_ID>
CHEMBL4067685

> <Smiles>
O=S(=O)(c1ccc(Br)cc1)N(Cc1ccccc1)c1ccc(Oc2ccccc2)cc1

$$$$
CHEMBL4102861
  SciTegic08162514323D

 54 57  0  0  0  0            999 V2000
   -2.3150    1.5510   -0.5580 S   0  0
   -3.0450    0.4450    0.0370 O   0  0
   -3.0820    2.7830   -0.6110 O   0  0
   -1.0140    1.8280    0.3670 N   0  0
   -1.8810    1.1110   -2.1680 C   0  0
   -0.4670    0.8130    1.1020 C   0  0
   -0.4200    3.1740    0.4180 C   0  0
   -1.2500    2.0490   -3.0040 C   0  0
   -2.1600   -0.1820   -2.6400 C   0  0
    0.1310    1.0820    2.3480 C   0  0
   -0.5000   -0.5100    0.6150 C   0  0
    1.0600    3.1230    0.2910 C   0  0
   -0.8970    1.6900   -4.3160 C   0  0
   -1.8070   -0.5390   -3.9530 C   0  0
    0.6930    0.0370    3.1000 C   0  0
    0.0600   -1.5530    1.3710 C   0  0
    1.6500    2.5700   -0.8590 C   0  0
    1.8710    3.6290    1.3220 C   0  0
   -1.1740    0.3950   -4.7930 C   0  0
    0.6580   -1.2830    2.6150 C   0  0
    3.0510    2.5240   -0.9780 C   0  0
    3.2710    3.5800    1.2030 C   0  0
   -0.8010    0.0160   -6.1800 C   0  0
    1.1850   -2.2620    3.3220 O   0  0
    3.8610    3.0290    0.0530 C   0  0
   -1.2400   -1.2560   -6.4390 F   0  0
    0.5620    0.0660   -6.3160 F   0  0
   -1.3810    0.8890   -7.0640 F   0  0
    0.5680   -3.4260    3.3220 C   0  0
   -0.8360   -3.4800    3.3220 C   0  0
    1.3120   -4.6190    3.3220 C   0  0
   -1.4960   -4.7230    3.3220 C   0  0
    0.6540   -5.8610    3.3220 C   0  0
   -0.7500   -5.9140    3.3220 C   0  0
   -0.6900    3.6490    1.3620 H   0  0
   -0.8340    3.7770   -0.3900 H   0  0
   -1.0350    3.0430   -2.6400 H   0  0
   -2.6470   -0.9000   -1.9980 H   0  0
    0.1680    2.0900    2.7390 H   0  0
   -0.9550   -0.7380   -0.3380 H   0  0
   -0.4100    2.4120   -4.9550 H   0  0
   -2.0240   -1.5350   -4.3120 H   0  0
    1.1500    0.2500    4.0550 H   0  0
    0.0330   -2.5620    0.9940 H   0  0
    1.0330    2.1820   -1.6560 H   0  0
    1.4240    4.0530    2.2090 H   0  0
    3.5040    2.1000   -1.8610 H   0  0
    3.8950    3.9690    1.9960 H   0  0
    4.9360    2.9920   -0.0370 H   0  0
   -1.4140   -2.5680    3.3220 H   0  0
    2.3930   -4.5840    3.3220 H   0  0
   -2.5740   -4.7620    3.3220 H   0  0
    1.2280   -6.7770    3.3220 H   0  0
   -1.2560   -6.8670    3.3220 H   0  0
  1  2  2  0
  1  3  2  0
  1  4  1  0
  1  5  1  0
  4  6  1  0
  4  7  1  0
  5  8  2  0
  5  9  1  0
  6 10  2  0
  6 11  1  0
  7 12  1  0
  8 13  1  0
  9 14  2  0
 10 15  1  0
 11 16  2  0
 12 17  2  0
 12 18  1  0
 13 19  2  0
 15 20  2  0
 17 21  1  0
 18 22  2  0
 19 23  1  0
 20 24  1  0
 21 25  2  0
 23 26  1  0
 23 27  1  0
 23 28  1  0
 24 29  1  0
 29 30  2  0
 29 31  1  0
 30 32  1  0
 31 33  2  0
 32 34  2  0
 14 19  1  0
 16 20  1  0
 22 25  1  0
 33 34  1  0
  7 35  1  0
  7 36  1  0
  8 37  1  0
  9 38  1  0
 10 39  1  0
 11 40  1  0
 13 41  1  0
 14 42  1  0
 15 43  1  0
 16 44  1  0
 17 45  1  0
 18 46  1  0
 21 47  1  0
 22 48  1  0
 25 49  1  0
 30 50  1  0
 31 51  1  0
 32 52  1  0
 33 53  1  0
 34 54  1  0
M  END
> <Name>
CHEMBL4102861

> <IC50 nM>
30000

> <Molecule_ChEMBL_ID>
CHEMBL4102861

> <Smiles>
O=S(=O)(c1ccc(C(F)(F)F)cc1)N(Cc1ccccc1)c1ccc(Oc2ccccc2)cc1

$$$$
CHEMBL4104398
  SciTegic08162514323D

 52 55  0  0  0  0            999 V2000
    6.0880   -4.8890   -2.3790 Cl  0  0
    5.2210   -3.4810   -1.9220 C   0  0
    4.8810   -2.5180   -2.8910 C   0  0
    4.8480   -3.2850   -0.5800 C   0  0
    4.1720   -1.3630   -2.5160 C   0  0
    4.1410   -2.1310   -0.2050 C   0  0
    3.8030   -1.1680   -1.1740 C   0  0
    3.0550    0.0550   -0.7770 C   0  0
    1.6090   -0.1000   -1.0040 N   0  0
    1.0390   -0.2640   -2.5120 S   0  0
    0.7460   -0.1040    0.0590 C   0  0
    1.6520    0.7710   -3.3260 O   0  0
    1.3590   -1.6070   -2.9550 O   0  0
   -0.6740   -0.0640   -2.5800 C   0  0
    0.9200   -1.0270    1.1060 C   0  0
   -0.3160    0.8180    0.1090 C   0  0
   -1.2210    1.0900   -3.1680 C   0  0
   -1.5160   -1.0550   -2.0470 C   0  0
    0.0330   -1.0290    2.1970 C   0  0
   -1.2010    0.8120    1.2010 C   0  0
   -2.6150    1.2540   -3.2270 C   0  0
   -2.9120   -0.8950   -2.1020 C   0  0
   -1.0290   -0.1110    2.2460 C   0  0
   -3.4570    0.2600   -2.6910 C   0  0
   -1.8590   -0.1150    3.2700 O   0  0
   -4.8850    0.4260   -2.7500 C   0  0
   -2.3160    1.0450    3.7010 C   0  0
   -6.0350    0.5610   -2.7970 N   0  0
   -3.6390    1.1540    4.1660 C   0  0
   -1.4820    2.1780    3.6970 C   0  0
   -4.1270    2.3910    4.6250 C   0  0
   -1.9690    3.4140    4.1560 C   0  0
   -3.2910    3.5200    4.6210 C   0  0
    5.1600   -2.6520   -3.9260 H   0  0
    5.1000   -4.0180    0.1740 H   0  0
    3.9140   -0.6270   -3.2640 H   0  0
    3.8600   -1.9860    0.8280 H   0  0
    3.4180    0.9060   -1.3520 H   0  0
    3.2310    0.2640    0.2770 H   0  0
    1.7310   -1.7440    1.0860 H   0  0
   -0.4670    1.5370   -0.6860 H   0  0
   -0.5720    1.8500   -3.5780 H   0  0
   -1.0940   -1.9400   -1.5940 H   0  0
    0.1700   -1.7420    2.9980 H   0  0
   -2.0160    1.5210    1.2340 H   0  0
   -3.0250    2.1460   -3.6840 H   0  0
   -3.5490   -1.6640   -1.6870 H   0  0
   -4.2850    0.2870    4.1700 H   0  0
   -0.4650    2.1000    3.3420 H   0  0
   -5.1430    2.4710    4.9810 H   0  0
   -1.3260    4.2810    4.1520 H   0  0
   -3.6660    4.4690    4.9730 H   0  0
  1  2  1  0
  2  3  2  0
  2  4  1  0
  3  5  1  0
  4  6  2  0
  5  7  2  0
  7  8  1  0
  8  9  1  0
  9 10  1  0
  9 11  1  0
 10 12  2  0
 10 13  2  0
 10 14  1  0
 11 15  2  0
 11 16  1  0
 14 17  2  0
 14 18  1  0
 15 19  1  0
 16 20  2  0
 17 21  1  0
 18 22  2  0
 19 23  2  0
 21 24  2  0
 23 25  1  0
 24 26  1  0
 25 27  1  0
 26 28  3  0
 27 29  2  0
 27 30  1  0
 29 31  1  0
 30 32  2  0
 31 33  2  0
  6  7  1  0
 20 23  1  0
 22 24  1  0
 32 33  1  0
  3 34  1  0
  4 35  1  0
  5 36  1  0
  6 37  1  0
  8 38  1  0
  8 39  1  0
 15 40  1  0
 16 41  1  0
 17 42  1  0
 18 43  1  0
 19 44  1  0
 20 45  1  0
 21 46  1  0
 22 47  1  0
 29 48  1  0
 30 49  1  0
 31 50  1  0
 32 51  1  0
 33 52  1  0
M  END
> <Name>
CHEMBL4104398

> <IC50 nM>
30000

> <Molecule_ChEMBL_ID>
CHEMBL4104398

> <Smiles>
N#Cc1ccc(S(=O)(=O)N(Cc2ccc(Cl)cc2)c2ccc(Oc3ccccc3)cc2)cc1

$$$$
CHEMBL4098118
  SciTegic08162514323D

 50 53  0  0  1  0            999 V2000
    4.4410   -4.1190    1.0100 F   0  0
    3.3630   -3.3710    0.7810 C   0  0
    2.0920   -3.8010    1.2230 C   0  0
    3.4940   -2.1480    0.0960 C   0  0
    1.9980   -4.9650    1.8830 O   0  0
    0.9280   -3.0140    0.9750 C   0  0
    2.3590   -1.3440   -0.1270 C   0  0
    1.0700   -1.7400    0.3300 C   0  0
   -0.4080   -3.5350    1.4040 C   0  0  1  0  0  0
   -0.1090   -0.8300    0.1150 C   0  0  2  0  0  0
   -1.6000   -2.7170    0.8730 C   0  0
   -0.6150   -5.0060    1.0140 C   0  0
    0.2110    0.6170    0.2600 N   0  0
   -1.3670   -1.2050    0.9510 C   0  0  1  0  0  0
    0.2340    1.4120   -0.8260 C   0  0
   -1.1990   -0.8590    2.3200 O   0  0
   -2.6150   -0.4490    0.4750 C   0  0
   -0.1370    2.7970   -0.7890 C   0  0
    0.6480    0.8480   -2.0610 C   0  0
   -2.7600   -0.6110   -0.8790 F   0  0
   -2.4820    0.8850    0.7640 F   0  0
   -3.7230   -0.9450    1.1130 F   0  0
   -0.0880    3.5880   -1.9880 C   0  0
   -0.5610    3.4300    0.4200 C   0  0
    0.6950    1.6270   -3.2360 C   0  0
   -0.4430    4.9240   -1.9710 N   0  0
    0.3300    2.9880   -3.2010 C   0  0
   -0.9200    4.8010    0.4120 C   0  0
   -0.8520    5.5270   -0.8010 C   0  0
   -1.2230    6.9490   -0.8180 C   0  0
    4.4610   -1.8240   -0.2600 H   0  0
    2.7970   -5.4860    2.0390 H   0  0
    2.4920   -0.4100   -0.6560 H   0  0
   -0.4260   -3.4790    2.4920 H   0  0
   -0.3790   -0.9650   -0.9320 H   0  0
   -1.7830   -2.9820   -0.1720 H   0  0
   -2.5080   -2.9980    1.4120 H   0  0
   -0.1190   -5.6660    1.7270 H   0  0
   -1.6760   -5.2520    0.9820 H   0  0
   -0.1970   -5.2070    0.0270 H   0  0
    0.4060    1.0000    1.1640 H   0  0
   -0.3180   -1.1680    2.5860 H   0  0
    0.9360   -0.1930   -2.1250 H   0  0
   -0.6190    2.8910    1.3540 H   0  0
    1.0140    1.1780   -4.1660 H   0  0
    0.3750    3.5650   -4.1150 H   0  0
   -1.2400    5.2790    1.3240 H   0  0
   -1.1390    7.4240   -1.7950 H   0  0
   -0.5860    7.5000   -0.1250 H   0  0
   -2.2540    7.0610   -0.4820 H   0  0
  1  2  1  0
  2  3  2  0
  2  4  1  0
  3  5  1  0
  3  6  1  0
  4  7  2  0
  6  8  2  0
  6  9  1  0
  8 10  1  0
  9 11  1  0
  9 12  1  0
 10 13  1  0
 10 14  1  0
 13 15  1  0
 14 16  1  0
 14 17  1  0
 15 18  2  0
 15 19  1  0
 17 20  1  0
 17 21  1  0
 17 22  1  0
 18 23  1  0
 18 24  1  0
 19 25  2  0
 23 26  1  0
 23 27  2  0
 24 28  2  0
 26 29  2  0
 29 30  1  0
  7  8  1  0
 11 14  1  0
 25 27  1  0
 28 29  1  0
  4 31  1  0
  5 32  1  0
  7 33  1  0
  9 34  1  0
 10 35  1  0
 11 36  1  0
 11 37  1  0
 12 38  1  0
 12 39  1  0
 12 40  1  0
 13 41  1  0
 16 42  1  0
 19 43  1  0
 24 44  1  0
 25 45  1  0
 27 46  1  0
 28 47  1  0
 30 48  1  0
 30 49  1  0
 30 50  1  0
M  END
> <Name>
CHEMBL4098118

> <IC50 nM>
15.85

> <Molecule_ChEMBL_ID>
CHEMBL4098118

> <Smiles>
Cc1ccc2c(N[C@H]3c4ccc(F)c(O)c4[C@H](C)C[C@]3(O)C(F)(F)F)cccc2n1

$$$$
CHEMBL3962413
  SciTegic08162514323D

 51 54  0  0  1  0            999 V2000
    3.9550   -3.9300    0.8770 F   0  0
    2.9530   -3.0550    0.8280 C   0  0
    1.6290   -3.5120    0.6250 C   0  0
    3.2110   -1.6740    0.9770 C   0  0
    1.3970   -4.8240    0.4770 O   0  0
    0.5530   -2.5860    0.5880 C   0  0
    4.4530   -1.2400    1.1860 F   0  0
    2.1490   -0.7440    0.9040 C   0  0
    0.8090   -1.1900    0.7010 C   0  0
   -0.8550   -3.0430    0.4450 C   0  0  1  0  0  0
   -0.3590   -0.2540    0.5820 C   0  0  2  0  0  0
   -1.7520   -2.2910    1.4490 C   0  0
   -1.3530   -2.8890   -0.9960 C   0  0
   -0.0610    1.1930    0.7910 N   0  0
   -1.6290   -0.7380    1.3670 C   0  0  1  0  0  0
   -0.7830   -3.9510   -1.9380 C   0  0
    0.3570    1.9470   -0.2400 C   0  0
   -1.6110   -0.2580    2.7030 O   0  0
   -2.8950   -0.1410    0.7360 C   0  0
    0.1990    3.3670   -0.2560 C   0  0
    0.9770    1.3120   -1.3460 C   0  0
   -3.9980   -0.5670    1.4300 F   0  0
   -2.9900   -0.5470   -0.5700 F   0  0
   -2.8260    1.2280    0.7850 F   0  0
    0.6580    4.1330   -1.3750 C   0  0
   -0.4470    4.0880    0.8870 C   0  0
    1.4300    2.0660   -2.4510 C   0  0
    0.5120    5.4880   -1.3970 N   0  0
    1.2730    3.4690   -2.4670 C   0  0
   -0.5720    5.4280    0.8260 C   0  0
   -0.0800    6.1740   -0.3520 C   0  0
   -0.1950    7.3770   -0.3980 O   0  0
    2.1390   -5.4420    0.5020 H   0  0
    2.3790    0.3070    1.0080 H   0  0
   -0.9200   -4.1040    0.6950 H   0  0
   -0.6250   -0.3150   -0.4750 H   0  0
   -1.4710   -2.6520    2.4450 H   0  0
   -2.7890   -2.6060    1.3240 H   0  0
   -2.4430   -2.8890   -1.0290 H   0  0
   -1.1410   -1.8870   -1.3730 H   0  0
   -0.1720    1.6000    1.6970 H   0  0
   -1.1700   -3.8200   -2.9470 H   0  0
    0.3050   -3.8970   -1.9630 H   0  0
   -1.0590   -4.9490   -1.6020 H   0  0
   -0.7710   -0.5430    3.0980 H   0  0
    1.1130    0.2400   -1.3630 H   0  0
   -0.8110    3.5570    1.7540 H   0  0
    1.8990    1.5660   -3.2850 H   0  0
    0.8380    6.0180   -2.1840 H   0  0
    1.6270    4.0210   -3.3260 H   0  0
   -1.0350    5.9590    1.6450 H   0  0
  1  2  1  0
  2  3  2  0
  2  4  1  0
  3  5  1  0
  3  6  1  0
  4  7  1  0
  4  8  2  0
  6  9  2  0
  6 10  1  0
  9 11  1  0
 10 12  1  0
 10 13  1  0
 11 14  1  0
 11 15  1  0
 13 16  1  0
 14 17  1  0
 15 18  1  0
 15 19  1  0
 17 20  2  0
 17 21  1  0
 19 22  1  0
 19 23  1  0
 19 24  1  0
 20 25  1  0
 20 26  1  0
 21 27  2  0
 25 28  1  0
 25 29  2  0
 26 30  2  0
 28 31  1  0
 31 32  2  0
  8  9  1  0
 12 15  1  0
 27 29  1  0
 30 31  1  0
  5 33  1  0
  8 34  1  0
 10 35  1  0
 11 36  1  0
 12 37  1  0
 12 38  1  0
 13 39  1  0
 13 40  1  0
 14 41  1  0
 16 42  1  0
 16 43  1  0
 16 44  1  0
 18 45  1  0
 21 46  1  0
 26 47  1  0
 27 48  1  0
 28 49  1  0
 29 50  1  0
 30 51  1  0
M  END
> <Name>
CHEMBL3962413

> <IC50 nM>
6.31

> <Molecule_ChEMBL_ID>
CHEMBL3962413

> <Smiles>
CC[C@@H]1C[C@](O)(C(F)(F)F)[C@@H](Nc2cccc3[nH]c(=O)ccc23)c2cc(F)c(F)c(O)c21

$$$$
CHEMBL3966490
  SciTegic08162514323D

 78 83  0  0  1  0            999 V2000
   -5.1720    2.9340    0.1620 O   0  0
   -4.5610    1.9470   -0.1740 C   0  0
   -5.2290    0.8180   -0.5530 N   0  0
   -3.0980    1.7440   -0.2480 C   0  0
   -6.6020    0.8010   -0.5550 C   0  0
   -2.5140    1.2520   -1.4350 C   0  0
   -2.2890    2.0430    0.8690 C   0  0
   -7.3280   -0.2660    0.0310 C   0  0
   -7.3070    1.8630   -1.1500 C   0  0
   -1.1110    1.0490   -1.5160 C   0  0
   -0.8930    1.8460    0.7970 C   0  0
   -8.6940   -0.2740    0.0260 N   0  0
   -6.6330   -1.4140    0.6760 C   0  0
   -8.7110    1.8380   -1.1480 C   0  0
   -0.2830    1.3360   -0.3830 C   0  0
   -0.5490    0.5290   -2.7930 C   0  0
   -9.3810    0.7540   -0.5510 C   0  0
    1.2010    1.1250   -0.4350 C   0  0  1  0  0  0
    0.9750    0.6720   -2.9120 C   0  0
    1.8690    0.6740    0.9010 C   0  0  1  0  0  0
    1.6370    0.2090   -1.6110 C   0  0  1  0  0  0
    1.3010   -0.5430    1.3580 O   0  0
    3.4040    0.5210    0.7700 C   0  0
    3.1720    0.2320   -1.6990 C   0  0  1  0  0  0
    1.6270   -0.8360    2.6970 C   0  0
    3.8160   -0.3540   -0.4300 C   0  0  1  0  0  0
    3.8200   -0.6000   -2.8090 C   0  0
    0.7320   -1.9120    3.2010 C   0  0
    5.3110   -0.3750   -0.8530 C   0  0  2  0  0  0
    3.3480   -1.8090   -0.2280 C   0  0
    5.2290   -0.9300   -2.2930 C   0  0
   -0.6040   -1.6210    3.5290 C   0  0
    1.2230   -3.2210    3.3500 C   0  0
    6.0740   -1.2380   -0.0270 O   0  0
    5.9450    0.9510   -0.8260 C   0  0
   -1.4490   -2.6390    4.0040 C   0  0
    0.3770   -4.2380    3.8260 C   0  0
    6.4710    2.0190   -0.7990 C   0  0
   -0.9590   -3.9470    4.1530 C   0  0
    7.1210    3.3260   -0.7600 C   0  0
   -4.7190    0.0040   -0.8300 H   0  0
   -3.1370    1.0290   -2.2890 H   0  0
   -2.7290    2.4220    1.7810 H   0  0
   -6.7910    2.6950   -1.6090 H   0  0
   -0.3050    2.0960    1.6660 H   0  0
   -7.3030   -2.1660    1.0940 H   0  0
   -5.9980   -1.0490    1.4850 H   0  0
   -5.9920   -1.9080   -0.0550 H   0  0
   -9.2720    2.6430   -1.6000 H   0  0
   -0.8150   -0.5250   -2.8690 H   0  0
   -1.0220    1.0290   -3.6410 H   0  0
  -10.4610    0.7320   -0.5470 H   0  0
    1.6090    2.1150   -0.6480 H   0  0
    1.3280    0.0820   -3.7580 H   0  0
    1.2420    1.7070   -3.1190 H   0  0
    1.6910    1.4040    1.6880 H   0  0
    1.3070   -0.8150   -1.4220 H   0  0
    3.8340    0.1290    1.6940 H   0  0
    3.8160    1.5250    0.6580 H   0  0
    3.4800    1.2620   -1.8340 H   0  0
    1.4770    0.0680    3.2890 H   0  0
    2.6600   -1.1780    2.7290 H   0  0
    3.8440   -0.0650   -3.7460 H   0  0
    3.2620   -1.5100   -2.9730 H   0  0
    3.7910   -2.4840   -0.9610 H   0  0
    2.2640   -1.8810   -0.3200 H   0  0
    3.6230   -2.1660    0.7640 H   0  0
    5.9940   -0.5290   -2.9450 H   0  0
    5.3550   -2.0040   -2.3100 H   0  0
   -0.9860   -0.6170    3.4160 H   0  0
    2.2480   -3.4510    3.1000 H   0  0
    6.8790   -1.4650   -0.5190 H   0  0
   -2.4750   -2.4140    4.2560 H   0  0
    0.7540   -5.2440    3.9400 H   0  0
   -1.6080   -4.7290    4.5180 H   0  0
    7.2580    3.6480    0.2740 H   0  0
    6.5120    4.0660   -1.2770 H   0  0
    8.0980    3.2770   -1.2420 H   0  0
  1  2  2  0
  2  3  1  0
  2  4  1  0
  3  5  1  0
  4  6  2  0
  4  7  1  0
  5  8  2  0
  5  9  1  0
  6 10  1  0
  7 11  2  0
  8 12  1  0
  8 13  1  0
  9 14  2  0
 10 15  2  0
 10 16  1  0
 12 17  2  0
 18 15  1  0
 16 19  1  0
 18 20  1  0
 18 21  1  0
 20 22  1  0
 20 23  1  0
 21 24  1  0
 22 25  1  0
 23 26  1  0
 24 27  1  0
 25 28  1  0
 26 29  1  0
 26 30  1  0
 27 31  1  0
 28 32  2  0
 28 33  1  0
 29 34  1  0
 29 35  1  0
 32 36  1  0
 33 37  2  0
 35 38  3  0
 36 39  2  0
 38 40  1  0
 11 15  1  0
 14 17  1  0
 21 19  1  0
 24 26  1  0
 29 31  1  0
 37 39  1  0
  3 41  1  0
  6 42  1  0
  7 43  1  0
  9 44  1  0
 11 45  1  0
 13 46  1  0
 13 47  1  0
 13 48  1  0
 14 49  1  0
 16 50  1  0
 16 51  1  0
 17 52  1  0
 18 53  1  0
 19 54  1  0
 19 55  1  0
 20 56  1  0
 21 57  1  0
 23 58  1  0
 23 59  1  0
 24 60  1  0
 25 61  1  0
 25 62  1  0
 27 63  1  0
 27 64  1  0
 30 65  1  0
 30 66  1  0
 30 67  1  0
 31 68  1  0
 31 69  1  0
 32 70  1  0
 33 71  1  0
 34 72  1  0
 36 73  1  0
 37 74  1  0
 39 75  1  0
 40 76  1  0
 40 77  1  0
 40 78  1  0
M  END
> <Name>
CHEMBL3966490

> <IC50 nM>
0.4

> <Molecule_ChEMBL_ID>
CHEMBL3966490

> <Smiles>
CC#C[C@]1(O)CC[C@H]2[C@@H]3CCc4cc(C(=O)Nc5cccnc5C)ccc4[C@H]3[C@@H](OCc3ccccc3)C[C@@]21C

$$$$
CHEMBL1762204
  SciTegic08162514323D

 54 57  0  0  0  0            999 V2000
   -0.4100    1.1880    0.5450 F   0  0
   -0.3050   -0.1430    0.5000 C   0  0
   -1.4880   -0.9260    0.5660 C   0  0
    0.9730   -0.7850    0.3930 C   0  0
   -1.4180   -2.3380    0.5290 C   0  0
   -2.7890   -0.2710    0.6760 C   0  0
    1.0330   -2.2130    0.3220 C   0  0
    2.2620    0.0000    0.3630 C   0  0
   -2.5180   -3.0880    0.6040 F   0  0
   -0.1640   -2.9730    0.4100 C   0  0
   -3.7620   -0.3960   -0.3480 C   0  0
   -3.0980    0.5040    1.8240 C   0  0
    2.2110   -2.8710    0.1680 N   0  0
    2.3110    1.2870    0.2790 N   0  0
    3.5570   -0.7910    0.4470 C   0  0
   -3.7620   -1.0700   -1.5630 N   0  0
   -4.9860    0.2190   -0.2440 C   0  0
   -4.3650    1.1390    1.9280 C   0  0
    3.4630   -2.1700   -0.2320 C   0  0
    3.5450    2.0240    0.2600 O   0  0
   -5.0180   -0.8340   -2.1740 C   0  0
   -5.7750   -0.0160   -1.3180 C   0  0
   -5.3220    1.0020    0.8890 C   0  0
    4.6700   -3.0230    0.1740 C   0  0
    3.4650   -2.0120   -1.7580 C   0  0
    3.1580    3.3850    0.1600 C   0  0
   -7.1840    0.4880   -1.5660 C   0  0
    2.4750    3.8170    1.4570 C   0  0
    4.3830    4.2380   -0.1740 C   0  0
   -0.1330   -4.0550    0.3830 H   0  0
   -2.3810    0.6190    2.6250 H   0  0
    2.2500   -3.8650    0.2890 H   0  0
    4.3910   -0.2380    0.0080 H   0  0
    3.8050   -0.9140    1.5020 H   0  0
   -3.0210   -1.6150   -1.9380 H   0  0
   -4.6000    1.7290    2.8030 H   0  0
   -5.3050   -1.2360   -3.1370 H   0  0
   -6.2830    1.4880    0.9730 H   0  0
    4.7050   -3.1910    1.2520 H   0  0
    5.6000   -2.5370   -0.1170 H   0  0
    4.6350   -3.9980   -0.3130 H   0  0
    2.6130   -1.4240   -2.1060 H   0  0
    3.4200   -2.9840   -2.2460 H   0  0
    4.3730   -1.5100   -2.0920 H   0  0
    2.4490    3.3870   -0.6680 H   0  0
   -7.5840    1.1130   -0.7700 H   0  0
   -7.8560   -0.3590   -1.6950 H   0  0
   -7.2030    1.0720   -2.4880 H   0  0
    1.5200    3.3090    1.6020 H   0  0
    2.2830    4.8910    1.4550 H   0  0
    3.1040    3.5920    2.3180 H   0  0
    4.8580    3.8890   -1.0900 H   0  0
    4.1000    5.2850   -0.2950 H   0  0
    5.1190    4.1840    0.6270 H   0  0
  1  2  1  0
  2  3  2  0
  2  4  1  0
  3  5  1  0
  3  6  1  0
  4  7  2  0
  4  8  1  0
  5  9  1  0
  5 10  2  0
  6 11  2  0
  6 12  1  0
  7 13  1  0
  8 14  2  0
  8 15  1  0
 11 16  1  0
 11 17  1  0
 12 18  2  0
 13 19  1  0
 14 20  1  0
 16 21  1  0
 17 22  1  0
 17 23  2  0
 19 24  1  0
 19 25  1  0
 20 26  1  0
 22 27  1  0
 26 28  1  0
 26 29  1  0
  7 10  1  0
 15 19  1  0
 18 23  1  0
 21 22  2  0
 10 30  1  0
 12 31  1  0
 13 32  1  0
 15 33  1  0
 15 34  1  0
 16 35  1  0
 18 36  1  0
 21 37  1  0
 23 38  1  0
 24 39  1  0
 24 40  1  0
 24 41  1  0
 25 42  1  0
 25 43  1  0
 25 44  1  0
 26 45  1  0
 27 46  1  0
 27 47  1  0
 27 48  1  0
 28 49  1  0
 28 50  1  0
 28 51  1  0
 29 52  1  0
 29 53  1  0
 29 54  1  0
M  END
> <Name>
CHEMBL1762204

> <IC50 nM>
11

> <Molecule_ChEMBL_ID>
CHEMBL1762204

> <Smiles>
Cc1c[nH]c2c(-c3c(F)cc4c(c3F)/C(=N/OC(C)C)CC(C)(C)N4)cccc12

$$$$
CHEMBL3358948
  SciTegic08162514323D

 60 62  0  0  1  0            999 V2000
    7.7440   -1.3220    1.9960 S   0  0
    7.8240   -2.0860    0.7620 O   0  0
    7.7170   -2.1540    3.1840 O   0  0
    6.3090   -0.3910    1.9590 C   0  0
    9.1540   -0.2270    2.0900 C   0  0
    6.4020    0.9960    2.0100 N   0  0
    5.0490   -1.0570    1.8770 C   0  0
    5.2250    1.7130    1.9790 C   0  0
    3.8710   -0.2560    1.8480 C   0  0
    3.9510    1.1130    1.8980 C   0  0
    2.5960   -0.6930    1.7750 C   0  0
    2.6560    1.6000    1.8540 N   0  0
    1.8010    0.4710    1.7770 C   0  0
    0.2910    0.5780    1.7110 C   0  0
   -0.2360    0.1370    0.3460 C   0  0  2  0  0  0
    0.2190   -1.1760    0.1000 O   0  0
    0.2520    1.0330   -0.7930 C   0  0
   -1.7640    0.1330    0.2750 C   0  0
    1.1890    0.3610   -1.5350 F   0  0
    0.8100    2.1700   -0.2720 F   0  0
   -0.8090    1.3710   -1.5940 F   0  0
   -2.3070   -0.9040   -0.7070 C   0  0
   -3.6040   -0.1990   -0.9040 C   0  0
   -1.4980   -0.9710   -2.0020 C   0  0
   -2.5060   -2.2770   -0.0640 C   0  0
   -4.2500   -0.2170   -2.1580 C   0  0
   -4.1840    0.4900    0.1760 C   0  0
   -3.6510   -0.9430   -3.3160 C   0  0
   -5.4750    0.4570   -2.3200 C   0  0
   -5.4060    1.1620    0.0080 C   0  0
   -3.5410   -2.1470   -3.3070 O   0  0
   -3.2230   -0.2210   -4.3970 N   0  0
   -6.0530    1.1470   -1.2400 C   0  0
   -7.3460    1.8550   -1.4160 C   0  0
    9.2400    0.3140    3.0310 H   0  0
    9.0980    0.5100    1.2870 H   0  0
   10.0700   -0.8010    1.9490 H   0  0
    4.9960   -2.1370    1.8360 H   0  0
    5.2830    2.7910    2.0180 H   0  0
    2.2500   -1.7170    1.7250 H   0  0
    2.3790    2.5550    1.8710 H   0  0
   -0.1500   -0.0230    2.5080 H   0  0
   -0.0100    1.6020    1.9280 H   0  0
    0.1580   -1.6620    0.9370 H   0  0
   -2.1930   -0.0120    1.2660 H   0  0
   -2.1390    1.1270    0.0330 H   0  0
   -1.7330   -0.1410   -2.6700 H   0  0
   -1.7050   -1.8980   -2.5390 H   0  0
   -0.4300   -0.9390   -1.7910 H   0  0
   -2.4490   -3.0820   -0.7990 H   0  0
   -3.4790   -2.3380    0.4240 H   0  0
   -1.7420   -2.4630    0.6910 H   0  0
   -3.6940    0.5060    1.1370 H   0  0
   -5.9750    0.4470   -3.2790 H   0  0
   -5.8460    1.6890    0.8440 H   0  0
   -3.3050    0.7750   -4.4280 H   0  0
   -2.8170   -0.6840   -5.1840 H   0  0
   -7.6310    2.3300   -0.4770 H   0  0
   -7.2620    2.5660   -2.2380 H   0  0
   -8.1230    1.1370   -1.6760 H   0  0
  1  2  2  0
  1  3  2  0
  1  4  1  0
  1  5  1  0
  4  6  2  0
  4  7  1  0
  6  8  1  0
  7  9  2  0
  8 10  2  0
  9 11  1  0
 10 12  1  0
 11 13  2  0
 13 14  1  0
 14 15  1  0
 15 16  1  0
 15 17  1  0
 15 18  1  0
 17 19  1  0
 17 20  1  0
 17 21  1  0
 18 22  1  0
 22 23  1  0
 22 24  1  0
 22 25  1  0
 23 26  2  0
 23 27  1  0
 26 28  1  0
 26 29  1  0
 27 30  2  0
 28 31  2  0
 28 32  1  0
 29 33  2  0
 33 34  1  0
  9 10  1  0
 12 13  1  0
 30 33  1  0
  5 35  1  0
  5 36  1  0
  5 37  1  0
  7 38  1  0
  8 39  1  0
 11 40  1  0
 12 41  1  0
 14 42  1  0
 14 43  1  0
 16 44  1  0
 18 45  1  0
 18 46  1  0
 24 47  1  0
 24 48  1  0
 24 49  1  0
 25 50  1  0
 25 51  1  0
 25 52  1  0
 27 53  1  0
 29 54  1  0
 30 55  1  0
 32 56  1  0
 32 57  1  0
 34 58  1  0
 34 59  1  0
 34 60  1  0
M  END
> <Name>
CHEMBL3358948

> <IC50 nM>
110

> <Molecule_ChEMBL_ID>
CHEMBL3358948

> <Smiles>
Cc1ccc(C(C)(C)CC(O)(Cc2cc3cc(S(C)(=O)=O)ncc3[nH]2)C(F)(F)F)c(C(N)=O)c1

$$$$
CHEMBL3358931
  SciTegic08162514323D

 57 59  0  0  1  0            999 V2000
    7.4810   -1.9180    0.9220 S   0  0
    7.5530   -2.6970   -0.3030 O   0  0
    7.4630   -2.7380    2.1210 O   0  0
    6.0470   -0.9880    0.8850 C   0  0
    8.8930   -0.8220    0.9920 C   0  0
    6.1390    0.4000    0.9360 N   0  0
    4.7850   -1.6540    0.8030 C   0  0
    4.9610    1.1150    0.9040 C   0  0
    3.6090   -0.8540    0.7750 C   0  0
    3.6880    0.5150    0.8240 C   0  0
    2.3320   -1.2910    0.7010 C   0  0
    2.3930    1.0040    0.7790 N   0  0
    1.5370   -0.1270    0.7030 C   0  0
    0.0290   -0.0200    0.6370 C   0  0
   -0.4730   -0.1490   -0.8010 C   0  0  2  0  0  0
   -0.3130   -1.4880   -1.2070 O   0  0
    0.2970    0.7420   -1.7770 C   0  0
   -1.9490    0.2220   -0.9450 C   0  0
    0.3750    2.0140   -1.2700 F   0  0
   -0.3540    0.7690   -2.9820 F   0  0
    1.5620    0.2400   -1.9510 F   0  0
   -2.8260   -0.4180    0.1310 C   0  0
   -4.1040   -0.0570   -0.5390 C   0  0
   -2.6430   -1.9320    0.2190 C   0  0
   -2.6900    0.2730    1.4880 C   0  0
   -4.6000    1.2600   -0.4670 C   0  0
   -4.8170   -1.0410   -1.2500 C   0  0
   -3.9400    2.1890    0.1930 O   0  0
   -5.8090    1.5840   -1.1070 C   0  0
   -6.0260   -0.7110   -1.8870 C   0  0
   -4.3590    3.5370    0.0470 C   0  0
   -6.5220    0.6010   -1.8160 C   0  0
   -6.6990   -1.6430   -2.5590 F   0  0
    8.9670   -0.2460    1.9140 H   0  0
    8.8480   -0.1190    0.1620 H   0  0
    9.8090   -1.4040    0.8870 H   0  0
    4.7320   -2.7330    0.7640 H   0  0
    5.0220    2.1930    0.9430 H   0  0
    1.9880   -2.3150    0.6520 H   0  0
    2.1170    1.9570    0.7970 H   0  0
   -0.4160   -0.7870    1.2720 H   0  0
   -0.2870    0.9280    1.0720 H   0  0
   -0.1250   -2.0080   -0.4080 H   0  0
   -2.0760    1.3050   -0.9530 H   0  0
   -2.3150   -0.0310   -1.9410 H   0  0
   -3.5180   -2.4240    0.6480 H   0  0
   -1.7830   -2.1820    0.8380 H   0  0
   -2.4770   -2.3580   -0.7710 H   0  0
   -3.6580    0.4260    1.9650 H   0  0
   -2.2150    1.2480    1.3810 H   0  0
   -2.0780   -0.3240    2.1640 H   0  0
   -4.4380   -2.0510   -1.3050 H   0  0
   -6.1930    2.5920   -1.0550 H   0  0
   -3.6880    4.1700    0.6270 H   0  0
   -4.4300    3.7580   -1.0200 H   0  0
   -5.3590    3.6330    0.4730 H   0  0
   -7.4490    0.8590   -2.3050 H   0  0
  1  2  2  0
  1  3  2  0
  1  4  1  0
  1  5  1  0
  4  6  2  0
  4  7  1  0
  6  8  1  0
  7  9  2  0
  8 10  2  0
  9 11  1  0
 10 12  1  0
 11 13  2  0
 13 14  1  0
 14 15  1  0
 15 16  1  0
 15 17  1  0
 15 18  1  0
 17 19  1  0
 17 20  1  0
 17 21  1  0
 18 22  1  0
 22 23  1  0
 22 24  1  0
 22 25  1  0
 23 26  2  0
 23 27  1  0
 26 28  1  0
 26 29  1  0
 27 30  2  0
 28 31  1  0
 29 32  2  0
 30 33  1  0
  9 10  1  0
 12 13  1  0
 30 32  1  0
  5 34  1  0
  5 35  1  0
  5 36  1  0
  7 37  1  0
  8 38  1  0
 11 39  1  0
 12 40  1  0
 14 41  1  0
 14 42  1  0
 16 43  1  0
 18 44  1  0
 18 45  1  0
 24 46  1  0
 24 47  1  0
 24 48  1  0
 25 49  1  0
 25 50  1  0
 25 51  1  0
 27 52  1  0
 29 53  1  0
 31 54  1  0
 31 55  1  0
 31 56  1  0
 32 57  1  0
M  END
> <Name>
CHEMBL3358931

> <IC50 nM>
2000

> <Molecule_ChEMBL_ID>
CHEMBL3358931

> <Smiles>
COc1ccc(F)cc1C(C)(C)CC(O)(Cc1cc2cc(S(C)(=O)=O)ncc2[nH]1)C(F)(F)F

$$$$
CHEMBL3358933
  SciTegic08162514323D

 60 63  0  0  1  0            999 V2000
    0.1370    5.9060    3.4400 F   0  0
    0.6440    4.7230    3.1060 C   0  0
    0.8670    4.4060    1.7540 C   0  0
    0.9570    3.7850    4.1060 C   0  0
    1.4040    3.1540    1.4020 C   0  0
    1.4920    2.5330    3.7540 C   0  0
    1.7170    2.2190    2.4040 C   0  0
    1.6410    2.8220   -0.0270 C   0  0
    2.4630    1.5410   -0.1800 C   0  0
    2.2420    4.0040   -0.7890 C   0  0
    0.1580    2.6110   -0.3400 C   0  0
    2.8870    1.2810   -1.6250 C   0  0  1  0  0  0
    3.7640    2.3120   -2.0190 O   0  0
    3.6680   -0.0330   -1.6190 C   0  0
    1.7050    1.2600   -2.5920 C   0  0
    3.7320   -0.5220   -0.3400 F   0  0
    4.9370    0.1850   -2.0880 F   0  0
    3.0350   -0.9450   -2.4240 F   0  0
    0.5980    0.3590   -2.0880 C   0  0
   -0.7560    0.4900   -2.4920 N   0  0
    0.6910   -0.7130   -1.1780 C   0  0
   -1.4610   -0.4980   -1.8300 C   0  0
   -0.5650   -1.1910   -1.0570 C   0  0
   -2.8150   -0.8890   -1.8050 C   0  0
   -0.9880   -2.2830   -0.2440 C   0  0
   -3.2930   -1.9360   -1.0450 N   0  0
   -2.3750   -2.6330   -0.2640 C   0  0
   -2.8150   -3.6560    0.4880 N   0  0
   -1.9080   -4.7560    0.9120 C   0  0
   -4.2270   -3.7440    0.9360 C   0  0
   -2.5900   -6.1350    0.7750 C   0  0
   -4.7760   -5.1820    0.8010 C   0  0
   -3.8790   -6.1210    1.3790 O   0  0
    0.6270    5.1270    0.9840 H   0  0
    0.7870    4.0230    5.1470 H   0  0
    1.7320    1.8140    4.5240 H   0  0
    2.1270    1.2560    2.1390 H   0  0
    1.9200    0.6850    0.2250 H   0  0
    3.3300    1.5610    0.4810 H   0  0
    1.7660    4.9450   -0.5180 H   0  0
    2.1250    3.8670   -1.8650 H   0  0
    3.3070    4.0960   -0.5780 H   0  0
   -0.4510    3.3710    0.1490 H   0  0
   -0.0180    2.6520   -1.4160 H   0  0
   -0.1760    1.6370    0.0160 H   0  0
    3.7380    2.3530   -2.9880 H   0  0
    2.0210    0.9280   -3.5820 H   0  0
    1.3120    2.2680   -2.7440 H   0  0
   -1.1250    1.1600   -3.1270 H   0  0
    1.5840   -1.0720   -0.6840 H   0  0
   -3.5200   -0.3420   -2.4160 H   0  0
   -0.2750   -2.8240    0.3650 H   0  0
   -0.9830   -4.7440    0.3340 H   0  0
   -1.6290   -4.5820    1.9510 H   0  0
   -4.8600   -3.0570    0.3730 H   0  0
   -4.2720   -3.4300    1.9790 H   0  0
   -1.9940   -6.9080    1.2600 H   0  0
   -2.6990   -6.4160   -0.2730 H   0  0
   -5.7380   -5.2760    1.3010 H   0  0
   -4.9280   -5.4470   -0.2480 H   0  0
  1  2  1  0
  2  3  2  0
  2  4  1  0
  3  5  1  0
  4  6  2  0
  5  7  2  0
  5  8  1  0
  8  9  1  0
  8 10  1  0
  8 11  1  0
  9 12  1  0
 12 13  1  0
 12 14  1  0
 12 15  1  0
 14 16  1  0
 14 17  1  0
 14 18  1  0
 15 19  1  0
 19 20  1  0
 19 21  2  0
 20 22  1  0
 21 23  1  0
 22 24  1  0
 23 25  1  0
 24 26  2  0
 25 27  2  0
 27 28  1  0
 28 29  1  0
 28 30  1  0
 29 31  1  0
 30 32  1  0
 31 33  1  0
  6  7  1  0
 22 23  2  0
 26 27  1  0
 32 33  1  0
  3 34  1  0
  4 35  1  0
  6 36  1  0
  7 37  1  0
  9 38  1  0
  9 39  1  0
 10 40  1  0
 10 41  1  0
 10 42  1  0
 11 43  1  0
 11 44  1  0
 11 45  1  0
 13 46  1  0
 15 47  1  0
 15 48  1  0
 20 49  1  0
 21 50  1  0
 24 51  1  0
 25 52  1  0
 29 53  1  0
 29 54  1  0
 30 55  1  0
 30 56  1  0
 31 57  1  0
 31 58  1  0
 32 59  1  0
 32 60  1  0
M  END
> <Name>
CHEMBL3358933

> <IC50 nM>
18

> <Molecule_ChEMBL_ID>
CHEMBL3358933

> <Smiles>
CC(C)(CC(O)(Cc1cc2cc(N3CCOCC3)ncc2[nH]1)C(F)(F)F)c1cccc(F)c1

$$$$
CHEMBL2023239
  SciTegic08162514323D

 80 87  0  0  1  0            999 V2000
    6.1740   -2.0960    0.6190 S   0  0
    5.9080   -2.2270   -1.1000 C   0  0
    6.4590   -3.7250    0.5680 C   0  0
    5.5080   -1.2090   -2.3850 S   0  0
    6.0550   -3.5310   -1.6150 N   0  0
    6.3830   -4.4100   -0.6190 C   0  0
    6.7870   -4.4400    1.7480 C   0  0
    5.3400    0.3480   -1.6040 C   0  0
    6.6170   -5.8030   -0.7150 C   0  0
    7.0310   -5.8360    1.6970 C   0  0
    3.9650    0.8980   -1.8730 C   0  0
    6.9450   -6.5200    0.4610 C   0  0
    3.7340    1.5310   -2.8770 O   0  0
    2.8830    0.6370   -0.8520 C   0  0  2  0  0  0
    2.5760   -0.7460   -0.9300 O   0  0
    1.6090    1.4980   -1.0290 C   0  0  2  0  0  0
    3.3010    0.9670    0.5960 C   0  0
    0.9120    1.2790    0.3220 C   0  0  1  0  0  0
    0.6410    1.1090   -2.1600 C   0  0
    2.0550    2.9650   -1.1680 C   0  0
    2.0550    1.5040    1.3120 C   0  0
   -0.3460    2.1500    0.4840 C   0  0  1  0  0  0
   -0.7210    1.8340   -2.0570 C   0  0  1  0  0  0
   -1.3520    1.7300   -0.6390 C   0  0  2  0  0  0
   -0.9060    1.9750    1.9220 C   0  0
   -0.5700    3.1870   -2.4430 O   0  0
   -2.7360    2.4280   -0.4470 C   0  0  2  0  0  0
   -2.3320    2.5230    2.0940 C   0  0
   -3.1450    1.9610    0.9550 C   0  0
   -3.7770    2.0920   -1.5700 C   0  0
   -2.5630    3.9570   -0.4410 C   0  0
   -4.1040    1.0330    1.1680 C   0  0
   -4.6020    0.8420   -1.3110 C   0  0
   -4.7500    0.4140   -0.0020 C   0  0
   -5.2600    0.0820   -2.2750 C   0  0
   -5.5780   -0.6560   -0.1500 N   0  0
   -5.8560   -0.8380   -1.4710 N   0  0
   -6.0570   -1.4340    0.8550 C   0  0
   -5.1900   -1.8930    1.8670 C   0  0
   -7.4200   -1.7870    0.8910 C   0  0
   -5.6860   -2.6970    2.9080 C   0  0
   -7.9120   -2.5920    1.9320 C   0  0
   -7.0470   -3.0470    2.9390 C   0  0
   -7.5140   -3.8110    3.9260 F   0  0
    6.8540   -3.9220    2.6930 H   0  0
    5.4880    0.2320   -0.5290 H   0  0
    6.0960    1.0310   -1.9880 H   0  0
    6.5490   -6.3170   -1.6640 H   0  0
    7.2810   -6.3750    2.5980 H   0  0
    7.1310   -7.5820    0.4160 H   0  0
    3.3710   -1.2310   -0.6600 H   0  0
    4.0680    1.7300    0.6110 H   0  0
    3.7170    0.1130    1.1170 H   0  0
    0.6060    0.2440    0.4060 H   0  0
    0.4410    0.0390   -2.1250 H   0  0
    1.1000    1.2910   -3.1330 H   0  0
    2.8770    3.2050   -0.4960 H   0  0
    1.2310    3.6410   -0.9410 H   0  0
    2.3850    3.1720   -2.1860 H   0  0
    2.1680    2.5570    1.5250 H   0  0
    1.8750    1.0020    2.2520 H   0  0
   -0.0880    3.2030    0.3550 H   0  0
   -1.3790    1.3770   -2.7910 H   0  0
   -1.5310    0.6600   -0.5060 H   0  0
   -0.2440    2.4550    2.6430 H   0  0
   -0.9140    0.9140    2.1820 H   0  0
   -0.2170    3.1870   -3.3480 H   0  0
   -2.3400    3.6150    2.0700 H   0  0
   -2.7460    2.2280    3.0590 H   0  0
   -4.5080    2.9020   -1.6270 H   0  0
   -3.3300    2.0570   -2.5610 H   0  0
   -3.4530    4.4430   -0.0450 H   0  0
   -1.7010    4.2440    0.1600 H   0  0
   -2.4020    4.3300   -1.4530 H   0  0
   -4.3710    0.7280    2.1700 H   0  0
   -5.3150    0.1620   -3.3520 H   0  0
   -4.1410   -1.6330    1.8590 H   0  0
   -8.1020   -1.4450    0.1230 H   0  0
   -5.0160   -3.0450    3.6820 H   0  0
   -8.9590   -2.8600    1.9510 H   0  0
  1  2  1  0
  1  3  1  0
  2  4  1  0
  2  5  2  0
  3  6  1  0
  3  7  2  0
  4  8  1  0
  6  9  2  0
  7 10  1  0
  8 11  1  0
  9 12  1  0
 11 13  2  0
 11 14  1  0
 14 15  1  0
 14 16  1  0
 14 17  1  0
 16 18  1  0
 16 19  1  0
 16 20  1  0
 17 21  1  0
 18 22  1  0
 19 23  1  0
 24 22  1  0
 22 25  1  0
 23 26  1  0
 24 27  1  0
 25 28  1  0
 27 29  1  0
 27 30  1  0
 27 31  1  0
 29 32  2  0
 30 33  1  0
 32 34  1  0
 33 35  1  0
 34 36  1  0
 35 37  2  0
 36 38  1  0
 38 39  2  0
 38 40  1  0
 39 41  1  0
 40 42  2  0
 41 43  2  0
 43 44  1  0
  5  6  1  0
 10 12  2  0
 18 21  1  0
 23 24  1  0
 28 29  1  0
 33 34  2  0
 36 37  1  0
 42 43  1  0
  7 45  1  0
  8 46  1  0
  8 47  1  0
  9 48  1  0
 10 49  1  0
 12 50  1  0
 15 51  1  0
 17 52  1  0
 17 53  1  0
 18 54  1  0
 19 55  1  0
 19 56  1  0
 20 57  1  0
 20 58  1  0
 20 59  1  0
 21 60  1  0
 21 61  1  0
 22 62  1  0
 23 63  1  0
 24 64  1  0
 25 65  1  0
 25 66  1  0
 26 67  1  0
 28 68  1  0
 28 69  1  0
 30 70  1  0
 30 71  1  0
 31 72  1  0
 31 73  1  0
 31 74  1  0
 32 75  1  0
 35 76  1  0
 39 77  1  0
 40 78  1  0
 41 79  1  0
 42 80  1  0
M  END
> <Name>
CHEMBL2023239

> <IC50 nM>
1.7

> <Molecule_ChEMBL_ID>
CHEMBL2023239

> <Smiles>
C[C@]12Cc3cnn(-c4ccc(F)cc4)c3C=C1CC[C@@H]1[C@@H]2[C@@H](O)C[C@@]2(C)[C@H]1CC[C@]2(O)C(=O)CSc1nc2ccccc2s1

$$$$
CHEMBL2023241
  SciTegic08162514323D

 84 91  0  0  1  0            999 V2000
   -6.0880   -0.1720   -1.4320 S   0  0
   -7.5470   -0.2640   -0.5880 C   0  0
   -4.9260    0.1210   -0.1560 C   0  0
   -7.6020   -0.1170    0.7750 N   0  0
   -8.7400   -0.4880   -1.2250 N   0  0
   -3.5470    0.2300   -0.7500 C   0  0
   -8.9240   -0.2580    1.0060 C   0  0
   -9.6080   -0.4800   -0.1910 C   0  0
   -9.0020   -0.6860   -2.6600 C   0  0
   -3.3790    0.1890   -1.9450 O   0  0
   -2.3790    0.3910    0.1950 C   0  0  2  0  0  0
   -9.6170   -0.2070    2.2380 C   0  0
  -11.0120   -0.6580   -0.2010 C   0  0
   -2.3930    1.7360    0.6430 O   0  0
   -1.0020    0.0290   -0.4080 C   0  0  2  0  0  0
   -2.4430   -0.5370    1.4260 C   0  0
  -11.0240   -0.3850    2.2420 C   0  0
  -11.7190   -0.6090    1.0250 C   0  0
   -0.1270   -0.0570    0.8570 C   0  0  1  0  0  0
   -0.3630    1.0330   -1.3910 C   0  0
   -1.1500   -1.3540   -1.0660 C   0  0
   -0.9980   -0.9080    1.7830 C   0  0
    1.2830   -0.5800    0.5330 C   0  0  1  0  0  0
    1.1150    0.6930   -1.7050 C   0  0  1  0  0  0
    1.9450    0.4610   -0.4140 C   0  0  2  0  0  0
    2.1370   -0.8830    1.7910 C   0  0
    1.1800   -0.4360   -2.5550 O   0  0
    3.4570    0.1540   -0.6170 C   0  0  2  0  0  0
    3.3130    0.0800    2.0000 C   0  0
    4.1520    0.2560    0.7500 C   0  0
    4.0980    1.1040   -1.6820 C   0  0
    3.6480   -1.2970   -1.0880 C   0  0
    5.4810    0.4900    0.8400 C   0  0
    5.6190    1.0920   -1.6170 C   0  0
    6.2150    0.8110   -0.3980 C   0  0
    6.4940    1.3560   -2.6700 C   0  0
    7.5370    0.9240   -0.6990 N   0  0
    7.6800    1.2320   -2.0160 N   0  0
    8.5650    0.7520    0.1740 C   0  0
    9.6680    1.6270    0.1460 C   0  0
    8.5310   -0.3030    1.1050 C   0  0
   10.7310    1.4490    1.0490 C   0  0
    9.5960   -0.4800    2.0080 C   0  0
   10.6950    0.3970    1.9790 C   0  0
   11.7010    0.2270    2.8320 F   0  0
   -4.9570   -0.7010    0.5590 H   0  0
   -5.1800    1.0450    0.3610 H   0  0
   -8.0670   -0.6090   -3.2130 H   0  0
   -9.5060   -1.6410   -2.8090 H   0  0
   -9.6660    0.1020   -3.0200 H   0  0
   -9.0900   -0.0370    3.1660 H   0  0
  -11.5430   -0.8300   -1.1270 H   0  0
   -3.2420    1.8810    1.0900 H   0  0
   -2.9530   -0.0840    2.2660 H   0  0
   -2.9880   -1.4410    1.1970 H   0  0
  -11.5690   -0.3500    3.1740 H   0  0
  -12.7910   -0.7440    1.0350 H   0  0
   -0.0270    0.9220    1.3090 H   0  0
   -0.9490    1.0960   -2.3090 H   0  0
   -0.3850    2.0330   -0.9590 H   0  0
   -1.7290   -2.0390   -0.4450 H   0  0
   -0.1740   -1.8050   -1.2420 H   0  0
   -1.6560   -1.2710   -2.0270 H   0  0
   -0.7790   -0.7270    2.8240 H   0  0
   -0.8260   -1.9610    1.5980 H   0  0
    1.1840   -1.5230   -0.0020 H   0  0
    1.5370    1.5220   -2.2730 H   0  0
    1.9100    1.4260    0.1000 H   0  0
    1.5230   -0.9060    2.6910 H   0  0
    2.5430   -1.8890    1.6950 H   0  0
    1.7850   -0.2150   -3.2770 H   0  0
    2.9360    1.0550    2.3070 H   0  0
    3.9340   -0.2810    2.8220 H   0  0
    3.7700    2.1290   -1.5060 H   0  0
    3.7680    0.8380   -2.6880 H   0  0
    4.6910   -1.5160   -1.3160 H   0  0
    3.0640   -1.4900   -1.9880 H   0  0
    3.3200   -1.9980   -0.3200 H   0  0
    5.9920    0.4510    1.7910 H   0  0
    6.3260    1.5920   -3.7130 H   0  0
    9.7130    2.4430   -0.5630 H   0  0
    7.6930   -0.9860    1.1450 H   0  0
   11.5740    2.1230    1.0230 H   0  0
    9.5650   -1.2890    2.7210 H   0  0
  1  2  1  0
  1  3  1  0
  2  4  2  0
  2  5  1  0
  3  6  1  0
  4  7  1  0
  5  8  1  0
  5  9  1  0
  6 10  2  0
  6 11  1  0
  7 12  1  0
  8 13  1  0
 11 14  1  0
 11 15  1  0
 11 16  1  0
 12 17  2  0
 13 18  2  0
 15 19  1  0
 15 20  1  0
 15 21  1  0
 16 22  1  0
 19 23  1  0
 20 24  1  0
 25 23  1  0
 23 26  1  0
 24 27  1  0
 25 28  1  0
 26 29  1  0
 28 30  1  0
 28 31  1  0
 28 32  1  0
 30 33  2  0
 31 34  1  0
 33 35  1  0
 34 36  1  0
 35 37  1  0
 36 38  2  0
 37 39  1  0
 39 40  2  0
 39 41  1  0
 40 42  1  0
 41 43  2  0
 42 44  2  0
 44 45  1  0
  7  8  2  0
 17 18  1  0
 19 22  1  0
 24 25  1  0
 29 30  1  0
 34 35  2  0
 37 38  1  0
 43 44  1  0
  3 46  1  0
  3 47  1  0
  9 48  1  0
  9 49  1  0
  9 50  1  0
 12 51  1  0
 13 52  1  0
 14 53  1  0
 16 54  1  0
 16 55  1  0
 17 56  1  0
 18 57  1  0
 19 58  1  0
 20 59  1  0
 20 60  1  0
 21 61  1  0
 21 62  1  0
 21 63  1  0
 22 64  1  0
 22 65  1  0
 23 66  1  0
 24 67  1  0
 25 68  1  0
 26 69  1  0
 26 70  1  0
 27 71  1  0
 29 72  1  0
 29 73  1  0
 31 74  1  0
 31 75  1  0
 32 76  1  0
 32 77  1  0
 32 78  1  0
 33 79  1  0
 36 80  1  0
 40 81  1  0
 41 82  1  0
 42 83  1  0
 43 84  1  0
M  END
> <Name>
CHEMBL2023241

> <IC50 nM>
1.1

> <Molecule_ChEMBL_ID>
CHEMBL2023241

> <Smiles>
Cn1c(SCC(=O)[C@@]2(O)CC[C@H]3[C@@H]4CCC5=Cc6c(cnn6-c6ccc(F)cc6)C[C@]5(C)[C@H]4[C@@H](O)C[C@@]32C)nc2ccccc21

$$$$
CHEMBL2023614
  SciTegic08162514323D

 83 90  0  0  1  0            999 V2000
    5.3560   -0.2910   -2.5940 S   0  0
    6.8950   -0.5820   -1.9570 C   0  0
    4.3810   -0.0740   -1.1540 C   0  0
    7.4470   -0.6680   -0.6890 N   0  0
    7.7460   -0.7670   -3.0820 C   0  0
    2.9550    0.1990   -1.5510 C   0  0
    8.7890   -0.9280   -0.4860 C   0  0
    9.1270   -1.0350   -2.9140 C   0  0
    2.6840    0.6150   -2.6520 O   0  0
    1.8730   -0.0620   -0.5310 C   0  0  2  0  0  0
    9.6600   -1.1170   -1.6010 C   0  0
    9.3200   -1.0100    0.8260 C   0  0
    1.5660   -1.4450   -0.6070 O   0  0
    0.6000    0.7990   -0.7070 C   0  0  2  0  0  0
    2.2910    0.2680    0.9180 C   0  0
   11.0370   -1.3830   -1.4000 C   0  0
   10.6950   -1.2750    1.0260 C   0  0
   -0.0980    0.5780    0.6450 C   0  0  1  0  0  0
   -0.3690    0.4100   -1.8380 C   0  0
    1.0450    2.2640   -0.8480 C   0  0
    1.0450    0.8050    1.6350 C   0  0
   11.5510   -1.4610   -0.0860 C   0  0
   -1.3560    1.4510    0.8070 C   0  0  1  0  0  0
   -1.7310    1.1350   -1.7340 C   0  0  1  0  0  0
   -2.3610    1.0290   -0.3160 C   0  0  2  0  0  0
   -1.9160    1.2760    2.2440 C   0  0
   -1.5800    2.4880   -2.1230 O   0  0
   -3.7460    1.7270   -0.1270 C   0  0  2  0  0  0
   -3.3420    1.8240    2.4160 C   0  0
   -4.1540    1.2620    1.2770 C   0  0
   -4.7890    1.3930   -1.2500 C   0  0
   -3.5720    3.2560   -0.1210 C   0  0
   -5.1130    0.3320    1.4900 C   0  0
   -5.6130    0.1430   -0.9880 C   0  0
   -5.7600   -0.2870    0.3200 C   0  0
   -6.2700   -0.6190   -1.9530 C   0  0
   -6.5880   -1.3550    0.1720 N   0  0
   -6.8650   -1.5370   -1.1480 N   0  0
   -7.0670   -2.1350    1.1780 C   0  0
   -8.4240   -2.5040    1.1990 C   0  0
   -6.2050   -2.5740    2.2010 C   0  0
   -8.9180   -3.3100    2.2400 C   0  0
   -6.6990   -3.3790    3.2400 C   0  0
   -8.0570   -3.7480    3.2620 C   0  0
   -8.5240   -4.5100    4.2460 F   0  0
    4.4300   -0.9760   -0.5450 H   0  0
    4.7720    0.7620   -0.5740 H   0  0
    7.3560   -0.7090   -4.0880 H   0  0
    9.7540   -1.1740   -3.7850 H   0  0
    8.6840   -0.8690    1.6900 H   0  0
    2.3630   -1.9300   -0.3400 H   0  0
    3.0570    1.0310    0.9320 H   0  0
    2.7050   -0.5860    1.4400 H   0  0
   11.7070   -1.5290   -2.2380 H   0  0
   11.0940   -1.3360    2.0270 H   0  0
   -0.4040   -0.4550    0.7270 H   0  0
   -0.5680   -0.6620   -1.8030 H   0  0
    0.0900    0.5900   -2.8100 H   0  0
    1.8480    2.5140   -0.1540 H   0  0
    0.2130    2.9400   -0.6480 H   0  0
    1.4020    2.4630   -1.8570 H   0  0
    1.1580    1.8560    1.8480 H   0  0
    0.8650    0.3030    2.5720 H   0  0
   12.6000   -1.6640    0.0720 H   0  0
   -1.0980    2.5040    0.6780 H   0  0
   -2.3890    0.6760   -2.4690 H   0  0
   -2.5410   -0.0390   -0.1840 H   0  0
   -1.2540    1.7560    2.9650 H   0  0
   -1.9240    0.2150    2.5040 H   0  0
   -1.3520    2.4900   -3.0640 H   0  0
   -3.3500    2.9140    2.3930 H   0  0
   -3.7560    1.5280    3.3810 H   0  0
   -5.5180    2.2010   -1.3070 H   0  0
   -4.3400    1.3580   -2.2400 H   0  0
   -4.4590    3.7440    0.2870 H   0  0
   -2.7050    3.5430    0.4730 H   0  0
   -3.4220    3.6310   -1.1330 H   0  0
   -5.3810    0.0290    2.4920 H   0  0
   -6.3260   -0.5390   -3.0310 H   0  0
   -9.1040   -2.1780    0.4240 H   0  0
   -5.1580   -2.3010    2.2030 H   0  0
   -9.9610   -3.5920    2.2540 H   0  0
   -6.0330   -3.7130    4.0240 H   0  0
  1  2  1  0
  1  3  1  0
  2  4  2  0
  2  5  1  0
  3  6  1  0
  4  7  1  0
  5  8  2  0
  6  9  2  0
  6 10  1  0
  7 11  1  0
  7 12  2  0
 10 13  1  0
 10 14  1  0
 10 15  1  0
 11 16  2  0
 12 17  1  0
 14 18  1  0
 14 19  1  0
 14 20  1  0
 15 21  1  0
 16 22  1  0
 18 23  1  0
 19 24  1  0
 25 23  1  0
 23 26  1  0
 24 27  1  0
 25 28  1  0
 26 29  1  0
 28 30  1  0
 28 31  1  0
 28 32  1  0
 30 33  2  0
 31 34  1  0
 33 35  1  0
 34 36  1  0
 35 37  1  0
 36 38  2  0
 37 39  1  0
 39 40  2  0
 39 41  1  0
 40 42  1  0
 41 43  2  0
 42 44  2  0
 44 45  1  0
  8 11  1  0
 17 22  2  0
 18 21  1  0
 24 25  1  0
 29 30  1  0
 34 35  2  0
 37 38  1  0
 43 44  1  0
  3 46  1  0
  3 47  1  0
  5 48  1  0
  8 49  1  0
 12 50  1  0
 13 51  1  0
 15 52  1  0
 15 53  1  0
 16 54  1  0
 17 55  1  0
 18 56  1  0
 19 57  1  0
 19 58  1  0
 20 59  1  0
 20 60  1  0
 20 61  1  0
 21 62  1  0
 21 63  1  0
 22 64  1  0
 23 65  1  0
 24 66  1  0
 25 67  1  0
 26 68  1  0
 26 69  1  0
 27 70  1  0
 29 71  1  0
 29 72  1  0
 31 73  1  0
 31 74  1  0
 32 75  1  0
 32 76  1  0
 32 77  1  0
 33 78  1  0
 36 79  1  0
 40 80  1  0
 41 81  1  0
 42 82  1  0
 43 83  1  0
M  END
> <Name>
CHEMBL2023614

> <IC50 nM>
5.3

> <Molecule_ChEMBL_ID>
CHEMBL2023614

> <Smiles>
C[C@]12Cc3cnn(-c4ccc(F)cc4)c3C=C1CC[C@@H]1[C@@H]2[C@@H](O)C[C@@]2(C)[C@H]1CC[C@]2(O)C(=O)CSc1ccc2ccccc2n1

$$$$
CHEMBL3126942
  SciTegic08162514323D

 47 49  0  0  1  0            999 V2000
    5.6150    3.6580   -2.2230 F   0  0
    4.5920    2.8590   -1.9340 C   0  0
    3.4920    2.7790   -2.8050 C   0  0
    4.6090    2.0900   -0.7580 C   0  0
    2.4080    1.9350   -2.5060 C   0  0
    3.5290    1.2460   -0.4530 C   0  0
    1.3810    1.8710   -3.3300 O   0  0
    2.4280    1.1660   -1.3240 C   0  0
    1.2890    0.2690   -0.9920 C   0  0
    1.5840   -0.5760    0.2460 C   0  0
    0.8690   -0.5740   -2.1970 C   0  0
    0.3200    1.4160   -0.7090 C   0  0
    0.3500   -1.3220    0.7580 C   0  0  1  0  0  0
   -0.6110   -1.3440   -0.2730 O   0  0
    0.7930   -2.7620    1.0290 C   0  0
   -0.2770   -0.6580    1.9820 C   0  0
   -0.3120   -3.5510    1.2230 F   0  0
    1.5800   -2.7930    2.1500 F   0  0
    1.5060   -3.2310   -0.0450 F   0  0
   -1.7890   -0.6800    1.9040 C   0  0
   -2.5470   -1.8460    1.7750 N   0  0
   -2.6890    0.3910    1.9430 C   0  0
   -3.8630   -1.4360    1.7400 C   0  0
   -3.9770   -0.0510    1.8440 C   0  0
   -5.0760   -2.1490    1.6230 C   0  0
   -5.1890    0.6210    1.8360 N   0  0
   -6.3200   -1.5430    1.6070 N   0  0
   -6.3460   -0.1510    1.7170 C   0  0
    3.4770    3.3710   -3.7110 H   0  0
    5.4530    2.1460   -0.0840 H   0  0
    3.5490    0.6580    0.4530 H   0  0
    1.3850    2.4060   -4.1350 H   0  0
    2.0180    0.0350    1.0370 H   0  0
    2.4020   -1.2720    0.0550 H   0  0
    1.4200   -0.3030   -3.0960 H   0  0
   -0.1930   -0.4450   -2.4060 H   0  0
    1.0430   -1.6330   -2.0060 H   0  0
    0.5470    2.2770   -1.3380 H   0  0
   -0.7090    1.1050   -0.8870 H   0  0
    0.3970    1.7360    0.3320 H   0  0
   -1.3070   -0.7150   -0.0290 H   0  0
    0.0660    0.3730    2.0780 H   0  0
    0.0470   -1.1520    2.8990 H   0  0
   -2.2070   -2.7780    1.7190 H   0  0
   -2.3980    1.4280    2.0390 H   0  0
   -5.0350   -3.2250    1.5390 H   0  0
   -7.3030    0.3510    1.7090 H   0  0
  1  2  1  0
  2  3  2  0
  2  4  1  0
  3  5  1  0
  4  6  2  0
  5  7  1  0
  5  8  2  0
  8  9  1  0
  9 10  1  0
  9 11  1  0
  9 12  1  0
 10 13  1  0
 13 14  1  0
 13 15  1  0
 13 16  1  0
 15 17  1  0
 15 18  1  0
 15 19  1  0
 16 20  1  0
 20 21  1  0
 20 22  2  0
 21 23  1  0
 22 24  1  0
 23 25  1  0
 24 26  1  0
 25 27  2  0
 26 28  2  0
  6  8  1  0
 23 24  2  0
 27 28  1  0
  3 29  1  0
  4 30  1  0
  6 31  1  0
  7 32  1  0
 10 33  1  0
 10 34  1  0
 11 35  1  0
 11 36  1  0
 11 37  1  0
 12 38  1  0
 12 39  1  0
 12 40  1  0
 14 41  1  0
 16 42  1  0
 16 43  1  0
 21 44  1  0
 22 45  1  0
 25 46  1  0
 28 47  1  0
M  END
> <Name>
CHEMBL3126942

> <IC50 nM>
9

> <Molecule_ChEMBL_ID>
CHEMBL3126942

> <Smiles>
CC(C)(CC(O)(Cc1cc2ncncc2[nH]1)C(F)(F)F)c1ccc(F)cc1O

$$$$
CHEMBL361406
  SciTegic08162514323D

 77 81  0  0  1  0            999 V2000
   -5.6040   -4.3440   -1.1990 O   0  0
   -4.5080   -3.8590   -1.0530 C   0  0
   -3.6640   -4.2560    0.0840 C   0  0
   -3.9920   -2.8340   -2.0310 C   0  0
   -2.4880   -3.6680    0.3850 C   0  0
   -2.7950   -1.9840   -1.5590 C   0  0
   -1.9360   -2.5510   -0.4280 C   0  0
   -1.7090   -4.1760    1.5760 C   0  0
   -0.7070   -2.0410   -0.1700 C   0  0
   -0.2090   -4.0120    1.3730 C   0  0
   -0.1070   -0.8690   -0.9530 C   0  0  1  0  0  0
    0.1760   -2.5760    0.9670 C   0  0  1  0  0  0
   -0.3380    0.4180   -0.2640 C   0  0
    1.3650   -1.1150   -1.3380 C   0  0
    1.6410   -2.6760    0.5310 C   0  0  1  0  0  0
   -1.0780    0.4530    0.9300 C   0  0
    0.1840    1.6070   -0.8030 C   0  0
    2.2580   -1.4450   -0.1370 C   0  0  1  0  0  0
    2.7320   -3.0080    1.5630 C   0  0
   -1.2970    1.6780    1.5860 C   0  0
   -0.0330    2.8320   -0.1480 C   0  0
    3.7090   -1.9510   -0.4140 C   0  0  2  0  0  0
    2.2850   -0.2700    0.8630 C   0  0
    4.0530   -2.4690    0.9960 C   0  0
   -0.7750    2.8690    1.0490 C   0  0
    4.5680   -0.9020   -0.7950 O   0  0
    3.7910   -3.0780   -1.3630 C   0  0
   -0.9880    4.0630    1.6880 N   0  0
    3.8560   -4.0220   -2.0840 C   0  0
   -0.3520    5.2990    1.2130 C   0  0
   -1.8650    4.1190    2.8670 C   0  0
    3.9450   -5.2190   -2.9220 C   0  0
   -1.1500    5.9240    0.0700 C   0  0  1  0  0  0
   -2.3550    6.4300    0.6000 O   0  0
   -0.4080    7.0720   -0.6110 C   0  0
   -1.1620    7.6250   -1.7910 C   0  0
   -1.0840    7.1040   -2.8790 O   0  0
   -1.8980    8.7030   -1.5390 O   0  0
   -4.0220   -5.0740    0.6890 H   0  0
   -3.7070   -3.3610   -2.9430 H   0  0
   -4.8110   -2.1720   -2.3180 H   0  0
   -2.1840   -1.8500   -2.4530 H   0  0
   -3.1480   -0.9960   -1.2700 H   0  0
   -2.0310   -3.6150    2.4570 H   0  0
   -1.9410   -5.2230    1.7730 H   0  0
    0.3200   -4.3260    2.2680 H   0  0
    0.0960   -4.7070    0.5920 H   0  0
   -0.6070   -0.7440   -1.9220 H   0  0
    0.0780   -1.9140    1.8300 H   0  0
    1.7560   -0.2380   -1.8480 H   0  0
    1.4160   -1.8910   -2.0780 H   0  0
    1.6330   -3.4610   -0.2130 H   0  0
   -1.4800   -0.4570    1.3480 H   0  0
    0.7540    1.5840   -1.7210 H   0  0
    2.7850   -4.0700    1.7130 H   0  0
    2.5450   -2.5570    2.5240 H   0  0
   -1.8690    1.6860    2.5040 H   0  0
    0.3750    3.7360   -0.5760 H   0  0
    3.0410   -0.4120    1.6370 H   0  0
    1.3200   -0.1620    1.3570 H   0  0
    2.5040    0.6660    0.3520 H   0  0
    4.4280   -1.6640    1.6170 H   0  0
    4.8340   -3.2170    0.9840 H   0  0
    5.4770   -1.2340   -0.7170 H   0  0
    0.6680    5.0780    0.8950 H   0  0
   -0.2600    5.9980    2.0450 H   0  0
   -1.5120    3.5510    3.7270 H   0  0
   -2.8520    3.7400    2.5980 H   0  0
   -1.9800    5.1560    3.1780 H   0  0
    4.9770   -5.5450   -3.0120 H   0  0
    3.5350   -5.0530   -3.9100 H   0  0
    3.3790   -6.0290   -2.4590 H   0  0
   -1.3980    5.1450   -0.6500 H   0  0
   -2.1190    7.1210    1.2380 H   0  0
    0.5450    6.6600   -0.9410 H   0  0
   -0.1970    7.8710    0.1000 H   0  0
   -2.4060    9.1080   -2.2540 H   0  0
  1  2  2  0
  2  3  1  0
  2  4  1  0
  3  5  2  0
  4  6  1  0
  5  7  1  0
  5  8  1  0
  7  9  2  0
  8 10  1  0
  9 11  1  0
  9 12  1  0
 11 13  1  0
 11 14  1  0
 12 15  1  0
 13 16  2  0
 13 17  1  0
 14 18  1  0
 15 19  1  0
 16 20  1  0
 17 21  2  0
 18 22  1  0
 18 23  1  0
 19 24  1  0
 20 25  2  0
 22 26  1  0
 22 27  1  0
 25 28  1  0
 27 29  3  0
 28 30  1  0
 28 31  1  0
 29 32  1  0
 30 33  1  0
 33 34  1  0
 33 35  1  0
 35 36  1  0
 36 37  2  0
 36 38  1  0
  6  7  1  0
 12 10  1  0
 15 18  1  0
 21 25  1  0
 22 24  1  0
  3 39  1  0
  4 40  1  0
  4 41  1  0
  6 42  1  0
  6 43  1  0
  8 44  1  0
  8 45  1  0
 10 46  1  0
 10 47  1  0
 11 48  1  0
 12 49  1  0
 14 50  1  0
 14 51  1  0
 15 52  1  0
 16 53  1  0
 17 54  1  0
 19 55  1  0
 19 56  1  0
 20 57  1  0
 21 58  1  0
 23 59  1  0
 23 60  1  0
 23 61  1  0
 24 62  1  0
 24 63  1  0
 26 64  1  0
 30 65  1  0
 30 66  1  0
 31 67  1  0
 31 68  1  0
 31 69  1  0
 32 70  1  0
 32 71  1  0
 32 72  1  0
 33 73  1  0
 34 74  1  0
 35 75  1  0
 35 76  1  0
 38 77  1  0
M  END
> <Name>
CHEMBL361406

> <IC50 nM>
37

> <Molecule_ChEMBL_ID>
CHEMBL361406

> <Smiles>
CC#C[C@]1(O)CC[C@H]2[C@@H]3CCC4=CC(=O)CCC4=C3[C@@H](c3ccc(N(C)C[C@@H](O)CC(=O)O)cc3)C[C@@]21C

$$$$
CHEMBL3093457
  SciTegic08162514323D

 50 52  0  0  1  0            999 V2000
   -0.5120   -0.1870    0.1130 S   0  0
    0.7270   -0.7930   -0.3460 O   0  0
   -0.4690    1.2640    0.1270 O   0  0
   -1.7210   -0.6230   -1.0610 N   0  0
   -0.8200   -0.7380    1.7230 C   0  0
   -1.7300    0.0920   -2.3260 C   0  0  2  0  0  0
   -1.6050    0.0410    2.5940 C   0  0
   -0.2870   -1.9670    2.1600 C   0  0
   -2.9180   -0.3500   -3.1820 C   0  0
   -0.3910   -0.0760   -3.0450 C   0  0
   -1.8550   -0.4080    3.9020 C   0  0
   -2.1720    1.3380    2.1370 C   0  0
   -0.5410   -2.4120    3.4710 C   0  0
    0.5410   -2.7950    1.2460 C   0  0
   -2.7950   -1.6840   -3.4800 F   0  0
   -2.9410    0.3790   -4.3420 F   0  0
   -4.0820   -0.1430   -2.4880 F   0  0
    0.5350    1.0140   -2.6950 N   0  0
   -1.3240   -1.6350    4.3400 C   0  0
    1.8850    0.8810   -2.3850 C   0  0
    0.2300    2.3910   -2.6110 C   0  0
   -1.5900   -2.1070    5.7250 C   0  0
    2.3730    2.1410   -2.1210 C   0  0
    2.7110   -0.2660   -2.3160 C   0  0
    1.4040    3.0800   -2.2480 C   0  0
    3.7320    2.3320   -1.7710 C   0  0
    4.0780   -0.0960   -1.9670 C   0  0
    4.2360    3.6470   -1.5000 C   0  0
    4.5860    1.2050   -1.6950 C   0  0
    4.6430    4.7070   -1.2790 N   0  0
   -2.6560   -0.5390   -0.6370 H   0  0
   -1.8590    1.1190   -1.9880 H   0  0
   -0.5740   -0.0660   -4.1190 H   0  0
    0.0640   -1.0350   -2.7930 H   0  0
   -2.4590    0.1890    4.5720 H   0  0
   -2.6130    1.3090    1.1410 H   0  0
   -1.3870    2.0960    2.1330 H   0  0
   -2.9430    1.6620    2.8340 H   0  0
   -0.1330   -3.3540    3.8070 H   0  0
    0.7210   -3.8110    1.6000 H   0  0
    1.5100   -2.3160    1.1000 H   0  0
    0.0530   -2.8610    0.2730 H   0  0
   -0.7640    2.7850   -2.8070 H   0  0
   -1.2320   -3.1310    5.8340 H   0  0
   -1.1310   -1.4240    6.4380 H   0  0
   -2.6640   -2.1090    5.9080 H   0  0
    2.3180   -1.2560   -2.5250 H   0  0
    1.4750    4.1540   -2.1070 H   0  0
    4.7290   -0.9590   -1.9100 H   0  0
    5.6190    1.3150   -1.4320 H   0  0
  1  2  2  0
  1  3  2  0
  1  4  1  0
  1  5  1  0
  6  4  1  0
  5  7  2  0
  5  8  1  0
  6  9  1  0
  6 10  1  0
  7 11  1  0
  7 12  1  0
  8 13  2  0
  8 14  1  0
  9 15  1  0
  9 16  1  0
  9 17  1  0
 10 18  1  0
 11 19  2  0
 18 20  1  0
 18 21  1  0
 19 22  1  0
 20 23  1  0
 20 24  2  0
 21 25  2  0
 23 26  2  0
 24 27  1  0
 26 28  1  0
 26 29  1  0
 28 30  3  0
 13 19  1  0
 23 25  1  0
 27 29  2  0
  4 31  1  0
  6 32  1  0
 10 33  1  0
 10 34  1  0
 11 35  1  0
 12 36  1  0
 12 37  1  0
 12 38  1  0
 13 39  1  0
 14 40  1  0
 14 41  1  0
 14 42  1  0
 21 43  1  0
 22 44  1  0
 22 45  1  0
 22 46  1  0
 24 47  1  0
 25 48  1  0
 27 49  1  0
 29 50  1  0
M  END
> <Name>
CHEMBL3093457

> <IC50 nM>
10000

> <Molecule_ChEMBL_ID>
CHEMBL3093457

> <Smiles>
Cc1cc(C)c(S(=O)(=O)NC(Cn2ccc3c(C#N)cccc32)C(F)(F)F)c(C)c1

$$$$
CHEMBL3094467
  SciTegic08162514323D

 52 53  0  0  1  0            999 V2000
   -0.0580   -1.4630    1.1070 S   0  0
   -0.6780   -2.7640    1.3030 O   0  0
    1.3650   -1.4590    1.3920 O   0  0
   -0.2110   -1.1090   -0.5880 N   0  0
   -0.8280   -0.3320    2.1640 C   0  0
    0.4880   -1.9670   -1.5290 C   0  0  2  0  0  0
   -1.3900   -0.7730    3.3770 C   0  0
   -0.8900    1.0290    1.8120 C   0  0
    0.5000   -1.3360   -2.9220 C   0  0
   -0.1150   -3.3710   -1.5240 C   0  0
   -2.0170    0.1490    4.2340 C   0  0
   -1.3300   -2.2090    3.7560 C   0  0
   -1.5150    1.9490    2.6720 C   0  0
   -0.2970    1.5020    0.5330 C   0  0
    1.1970   -0.0230   -2.9220 C   0  0
    0.8110   -4.4080   -0.8850 C   0  0
   -2.0800    1.5100    3.8850 C   0  0
    0.4510    1.1680   -2.9220 C   0  0
    2.6020    0.0290   -2.9220 C   0  0
   -2.7400    2.4830    4.7930 C   0  0
    1.1100    2.4120   -2.9220 C   0  0
    3.2600    1.2720   -2.9220 C   0  0
    2.5180    2.4650   -2.9220 C   0  0
    0.3110    3.6660   -2.9220 C   0  0
    3.1450    3.6250   -2.9220 O   0  0
   -1.2070   -1.0920   -0.8480 H   0  0
    1.4920   -1.9760   -1.1020 H   0  0
   -0.5150   -1.2090   -3.2970 H   0  0
    0.9790   -2.0020   -3.6430 H   0  0
   -1.0880   -3.3710   -1.0350 H   0  0
   -0.3940   -3.6760   -2.5330 H   0  0
   -2.4490   -0.1890    5.1660 H   0  0
   -0.3530   -2.6700    3.6070 H   0  0
   -2.0560   -2.7710    3.1680 H   0  0
   -1.5940   -2.3180    4.8070 H   0  0
   -1.5640    2.9940    2.4020 H   0  0
    0.6740    1.0650    0.3010 H   0  0
   -0.1760    2.5840    0.5680 H   0  0
   -0.9720    1.2700   -0.2890 H   0  0
    0.3320   -5.3870   -0.8580 H   0  0
    1.7460   -4.4840   -1.4400 H   0  0
    1.0530   -4.1270    0.1400 H   0  0
   -0.6290    1.1290   -2.9220 H   0  0
    3.1820   -0.8850   -2.9220 H   0  0
   -2.7360    3.5100    4.4300 H   0  0
   -2.2440    2.4690    5.7620 H   0  0
   -3.7790    2.1880    4.9450 H   0  0
    4.3380    1.3070   -2.9220 H   0  0
    0.9060    4.5780   -2.9220 H   0  0
   -0.3320    3.6880   -2.0410 H   0  0
   -0.3320    3.6880   -3.8030 H   0  0
    4.1100    3.6410   -2.9220 H   0  0
  1  2  2  0
  1  3  2  0
  1  4  1  0
  1  5  1  0
  6  4  1  0
  5  7  2  0
  5  8  1  0
  6  9  1  0
  6 10  1  0
  7 11  1  0
  7 12  1  0
  8 13  2  0
  8 14  1  0
  9 15  1  0
 10 16  1  0
 11 17  2  0
 15 18  2  0
 15 19  1  0
 17 20  1  0
 18 21  1  0
 19 22  2  0
 21 23  2  0
 21 24  1  0
 23 25  1  0
 13 17  1  0
 22 23  1  0
  4 26  1  0
  6 27  1  0
  9 28  1  0
  9 29  1  0
 10 30  1  0
 10 31  1  0
 11 32  1  0
 12 33  1  0
 12 34  1  0
 12 35  1  0
 13 36  1  0
 14 37  1  0
 14 38  1  0
 14 39  1  0
 16 40  1  0
 16 41  1  0
 16 42  1  0
 18 43  1  0
 19 44  1  0
 20 45  1  0
 20 46  1  0
 20 47  1  0
 22 48  1  0
 24 49  1  0
 24 50  1  0
 24 51  1  0
 25 52  1  0
M  END
> <Name>
CHEMBL3094467

> <IC50 nM>
2000

> <Molecule_ChEMBL_ID>
CHEMBL3094467

> <Smiles>
CC[C@@H](Cc1ccc(O)c(C)c1)NS(=O)(=O)c1c(C)cc(C)cc1C

$$$$
CHEMBL3094485
  SciTegic08162514323D

 55 57  0  0  1  0            999 V2000
   -0.5680    1.5350    1.2250 S   0  0
   -0.3480    2.9670    1.3070 O   0  0
   -1.8980    1.1350    1.6560 O   0  0
   -0.4730    1.1310   -0.4650 N   0  0
    0.5900    0.7440    2.2340 C   0  0
   -1.5160    1.6250   -1.3460 C   0  0  2  0  0  0
    1.1350    1.4220    3.3420 C   0  0
    0.9900   -0.5740    1.9490 C   0  0
   -1.3770    1.0100   -2.7380 C   0  0
   -1.5140    3.1540   -1.3730 C   0  0
    2.0780    0.7790    4.1620 C   0  0
    0.7170    2.8160    3.6500 C   0  0
    1.9340   -1.2150    2.7710 C   0  0
    0.4180   -1.2950    0.7810 C   0  0
   -1.4300   -0.4630   -2.6900 C   0  0
   -2.6640    3.7600   -0.5680 C   0  0
    2.4770   -0.5390    3.8790 C   0  0
   -0.2460   -1.2560   -2.6760 C   0  0
   -2.6970   -1.0940   -2.6560 C   0  0
    3.4750   -1.2170    4.7460 C   0  0
   -0.3500   -2.6840   -2.6290 C   0  0
    1.0390   -0.6500   -2.7070 C   0  0
   -2.7970   -2.5020   -2.6090 C   0  0
   -1.6310   -3.3010   -2.5960 C   0  0
    0.8280   -3.4770   -2.6190 C   0  0
    2.2050   -1.4510   -2.6950 C   0  0
   -1.7600   -4.6350   -2.5510 O   0  0
    2.1000   -2.8590   -2.6520 C   0  0
    0.4380    1.4370   -0.8400 H   0  0
   -2.4080    1.2500   -0.8460 H   0  0
   -0.4450    1.3260   -3.2090 H   0  0
   -2.1600    1.3790   -3.4020 H   0  0
   -0.5570    3.5450   -1.0290 H   0  0
   -1.5270    3.5220   -2.3990 H   0  0
    2.4960    1.2990    5.0140 H   0  0
   -0.3590    2.9800    3.6130 H   0  0
    1.1840    3.5000    2.9390 H   0  0
    1.0630    3.0860    4.6480 H   0  0
    2.2400   -2.2270    2.5530 H   0  0
   -0.6520   -1.1450    0.6410 H   0  0
    0.5940   -2.3650    0.8950 H   0  0
    0.9240   -0.9710   -0.1290 H   0  0
   -2.6410    4.8480   -0.6230 H   0  0
   -3.6250    3.4060   -0.9410 H   0  0
   -2.5900    3.4770    0.4820 H   0  0
   -3.6000   -0.4980   -2.6660 H   0  0
    3.7170   -2.2360    4.4410 H   0  0
    3.1000   -1.2580    5.7700 H   0  0
    4.4000   -0.6430    4.7540 H   0  0
    1.1560    0.4240   -2.7380 H   0  0
   -3.7700   -2.9690   -2.5820 H   0  0
    0.7770   -4.5570   -2.5860 H   0  0
    3.1780   -0.9840   -2.7190 H   0  0
   -2.6430   -5.0260   -2.5270 H   0  0
    2.9920   -3.4670   -2.6450 H   0  0
  1  2  2  0
  1  3  2  0
  1  4  1  0
  1  5  1  0
  6  4  1  0
  5  7  2  0
  5  8  1  0
  6  9  1  0
  6 10  1  0
  7 11  1  0
  7 12  1  0
  8 13  2  0
  8 14  1  0
  9 15  1  0
 10 16  1  0
 11 17  2  0
 15 18  2  0
 15 19  1  0
 17 20  1  0
 18 21  1  0
 18 22  1  0
 19 23  2  0
 21 24  2  0
 21 25  1  0
 22 26  2  0
 24 27  1  0
 25 28  2  0
 13 17  1  0
 23 24  1  0
 26 28  1  0
  4 29  1  0
  6 30  1  0
  9 31  1  0
  9 32  1  0
 10 33  1  0
 10 34  1  0
 11 35  1  0
 12 36  1  0
 12 37  1  0
 12 38  1  0
 13 39  1  0
 14 40  1  0
 14 41  1  0
 14 42  1  0
 16 43  1  0
 16 44  1  0
 16 45  1  0
 19 46  1  0
 20 47  1  0
 20 48  1  0
 20 49  1  0
 22 50  1  0
 23 51  1  0
 25 52  1  0
 26 53  1  0
 27 54  1  0
 28 55  1  0
M  END
> <Name>
CHEMBL3094485

> <IC50 nM>
23

> <Molecule_ChEMBL_ID>
CHEMBL3094485

> <Smiles>
CCC(Cc1ccc(O)c2ccccc12)NS(=O)(=O)c1c(C)cc(C)cc1C

$$$$
CHEMBL3094478
  SciTegic08162514323D

 48 49  0  0  1  0            999 V2000
   -2.6910    3.9450   -2.3380 Cl  0  0
   -1.1450    3.2830   -2.6660 C   0  0
   -0.0200    4.1250   -2.7400 C   0  0
   -1.0000    1.8980   -2.8650 C   0  0
    1.2500    3.5820   -3.0120 C   0  0
    0.2680    1.3550   -3.1390 C   0  0
    2.6230    4.6050   -3.1000 Cl  0  0
    1.3930    2.1950   -3.2110 C   0  0
    0.4180   -0.1070   -3.3500 C   0  0
    1.0210   -0.7950   -2.1230 C   0  0  1  0  0  0
    0.1640   -0.6090   -0.9650 N   0  0
    1.2970   -2.2810   -2.3540 C   0  0
    0.8090   -1.0140    0.6020 S   0  0
    2.7340   -2.6740   -2.0120 C   0  0
    1.0510   -2.4450    0.5760 O   0  0
    2.0230   -0.2310    0.7480 O   0  0
   -0.2320   -0.6600    1.9360 C   0  0
   -0.2090   -1.4790    3.0800 C   0  0
   -1.1000    0.4450    1.8770 C   0  0
   -1.0570   -1.1900    4.1640 C   0  0
    0.7050   -2.6490    3.1500 C   0  0
   -1.9450    0.7300    2.9630 C   0  0
   -1.1290    1.3140    0.6700 C   0  0
   -1.9240   -0.0860    4.1070 C   0  0
   -2.8180    0.2190    5.2540 C   0  0
   -0.1290    5.1890   -2.5880 H   0  0
   -1.8590    1.2460   -2.8090 H   0  0
    2.3630    1.7710   -3.4220 H   0  0
   -0.5510   -0.5410   -3.5960 H   0  0
    1.0330   -0.2870   -4.2310 H   0  0
    1.9260   -0.2810   -1.8010 H   0  0
   -0.7090   -1.1330   -1.1210 H   0  0
    0.5860   -2.8950   -1.7990 H   0  0
    1.0530   -2.5630   -3.3790 H   0  0
    2.8750   -3.7500   -2.1250 H   0  0
    3.4390   -2.1520   -2.6560 H   0  0
    2.9690   -2.4140   -0.9800 H   0  0
   -1.0390   -1.8180    5.0450 H   0  0
    1.7230   -2.4430    2.8160 H   0  0
    0.3110   -3.4570    2.5330 H   0  0
    0.7580   -3.0080    4.1780 H   0  0
   -2.6130    1.5800    2.9180 H   0  0
   -0.1470    1.5450    0.2600 H   0  0
   -1.6170    2.2580    0.9140 H   0  0
   -1.7130    0.8300   -0.1130 H   0  0
   -3.4530    1.0940    5.1090 H   0  0
   -2.2190    0.3850    6.1490 H   0  0
   -3.4710   -0.6350    5.4430 H   0  0
  1  2  1  0
  2  3  2  0
  2  4  1  0
  3  5  1  0
  4  6  2  0
  5  7  1  0
  5  8  2  0
  6  9  1  0
  9 10  1  0
 10 11  1  0
 10 12  1  0
 11 13  1  0
 12 14  1  0
 13 15  2  0
 13 16  2  0
 13 17  1  0
 17 18  2  0
 17 19  1  0
 18 20  1  0
 18 21  1  0
 19 22  2  0
 19 23  1  0
 20 24  2  0
 24 25  1  0
  6  8  1  0
 22 24  1  0
  3 26  1  0
  4 27  1  0
  8 28  1  0
  9 29  1  0
  9 30  1  0
 10 31  1  0
 11 32  1  0
 12 33  1  0
 12 34  1  0
 14 35  1  0
 14 36  1  0
 14 37  1  0
 20 38  1  0
 21 39  1  0
 21 40  1  0
 21 41  1  0
 22 42  1  0
 23 43  1  0
 23 44  1  0
 23 45  1  0
 25 46  1  0
 25 47  1  0
 25 48  1  0
M  END
> <Name>
CHEMBL3094478

> <IC50 nM>
10000

> <Molecule_ChEMBL_ID>
CHEMBL3094478

> <Smiles>
CCC(Cc1cc(Cl)cc(Cl)c1)NS(=O)(=O)c1c(C)cc(C)cc1C

$$$$
CHEMBL3094473
  SciTegic08162514323D

 54 55  0  0  1  0            999 V2000
    0.1640    1.5450   -1.1390 S   0  0
   -0.5310    2.8010   -1.3570 O   0  0
    1.6090    1.6740   -1.2050 O   0  0
   -0.2010    1.0700    0.4940 N   0  0
   -0.3380    0.4280   -2.3570 C   0  0
    0.2750    1.9200    1.5740 C   0  0  2  0  0  0
   -0.7600    0.8980   -3.6130 C   0  0
   -0.3260   -0.9550   -2.0900 C   0  0
    0.1640    1.1930    2.9140 C   0  0
   -0.4610    3.2600    1.5670 C   0  0
   -1.1700   -0.0120   -4.6040 C   0  0
   -0.7750    2.3570   -3.9020 C   0  0
   -0.7360   -1.8630   -3.0820 C   0  0
    0.1170   -1.4610   -0.7660 C   0  0
    0.9380   -0.0780    2.9140 C   0  0
    0.4380    4.4240    1.1470 C   0  0
   -1.1580   -1.3930   -4.3400 C   0  0
    0.2750   -1.3220    2.9140 C   0  0
    2.3440   -0.0310    2.9140 C   0  0
   -1.5920   -2.3550   -5.3870 C   0  0
    1.0250   -2.5160    2.9140 C   0  0
   -1.2130   -1.3770    2.9140 C   0  0
    3.0880   -1.2210    2.9140 C   0  0
    2.4320   -2.4610    2.9140 C   0  0
    0.3480   -3.8400    2.9140 C   0  0
   -1.2190    0.9570    0.6000 H   0  0
    1.3200    2.0530    1.2930 H   0  0
   -0.8790    0.9840    3.1540 H   0  0
    0.5120    1.8300    3.7290 H   0  0
   -1.3460    3.2090    0.9320 H   0  0
   -0.9160    3.4550    2.5370 H   0  0
   -1.4940    0.3500   -5.5700 H   0  0
    0.1230    2.8870   -3.5880 H   0  0
   -1.6270    2.8180   -3.4000 H   0  0
   -0.8960    2.5160   -4.9750 H   0  0
   -0.7270   -2.9260   -2.8790 H   0  0
    1.0040   -0.9650   -0.3690 H   0  0
    0.3380   -2.5250   -0.8380 H   0  0
   -0.6860   -1.3360   -0.0410 H   0  0
   -0.1250    5.3580    1.1290 H   0  0
    1.2770    4.5290    1.8320 H   0  0
    0.8420    4.2600    0.1490 H   0  0
    2.8560    0.9200    2.9140 H   0  0
   -1.5450   -3.4000   -5.0820 H   0  0
   -0.9630   -2.2360   -6.2700 H   0  0
   -2.6190   -2.1370   -5.6760 H   0  0
   -1.6740   -1.0530    3.8480 H   0  0
   -1.5410   -2.3980    2.7190 H   0  0
   -1.6000   -0.7440    2.1150 H   0  0
    4.1680   -1.1820    2.9140 H   0  0
    3.0120   -3.3730    2.9140 H   0  0
    1.0250   -4.6910    2.9710 H   0  0
   -0.2440   -3.9450    2.0060 H   0  0
   -0.3340   -3.9000    3.7640 H   0  0
  1  2  2  0
  1  3  2  0
  1  4  1  0
  1  5  1  0
  6  4  1  0
  5  7  2  0
  5  8  1  0
  6  9  1  0
  6 10  1  0
  7 11  1  0
  7 12  1  0
  8 13  2  0
  8 14  1  0
  9 15  1  0
 10 16  1  0
 11 17  2  0
 15 18  2  0
 15 19  1  0
 17 20  1  0
 18 21  1  0
 18 22  1  0
 19 23  2  0
 21 24  2  0
 21 25  1  0
 13 17  1  0
 23 24  1  0
  4 26  1  0
  6 27  1  0
  9 28  1  0
  9 29  1  0
 10 30  1  0
 10 31  1  0
 11 32  1  0
 12 33  1  0
 12 34  1  0
 12 35  1  0
 13 36  1  0
 14 37  1  0
 14 38  1  0
 14 39  1  0
 16 40  1  0
 16 41  1  0
 16 42  1  0
 19 43  1  0
 20 44  1  0
 20 45  1  0
 20 46  1  0
 22 47  1  0
 22 48  1  0
 22 49  1  0
 23 50  1  0
 24 51  1  0
 25 52  1  0
 25 53  1  0
 25 54  1  0
M  END
> <Name>
CHEMBL3094473

> <IC50 nM>
10000

> <Molecule_ChEMBL_ID>
CHEMBL3094473

> <Smiles>
CCC(Cc1cccc(C)c1C)NS(=O)(=O)c1c(C)cc(C)cc1C

$$$$
CHEMBL3094487
  SciTegic08162514323D

 52 53  0  0  1  0            999 V2000
    0.1880   -1.3810    1.0120 S   0  0
   -0.4410   -2.6740    1.2170 O   0  0
    1.6370   -1.4340    1.0680 O   0  0
   -0.2130   -0.9020   -0.6110 N   0  0
   -0.3650   -0.3070    2.2480 C   0  0
    0.3010   -1.7110   -1.7050 C   0  0  2  0  0  0
   -0.7560   -0.8180    3.5020 C   0  0
   -0.4260    1.0780    2.0020 C   0  0
    0.1190   -0.9850   -3.0390 C   0  0
   -0.3460   -3.0960   -1.6970 C   0  0
   -1.2050    0.0580    4.5060 C   0  0
   -0.6930   -2.2790    3.7700 C   0  0
   -0.8770    1.9490    3.0100 C   0  0
   -0.0180    1.6250    0.6820 C   0  0
    0.7990    0.3400   -3.0390 C   0  0
    0.6230   -4.1950   -1.2580 C   0  0
   -1.2660    1.4410    4.2620 C   0  0
    0.0510    1.5330   -3.0390 C   0  0
    2.2030    0.3940   -3.0390 C   0  0
   -1.7420    2.3650    5.3240 C   0  0
    0.7130    2.7730   -3.0390 C   0  0
   -1.4370    1.4980   -3.0390 C   0  0
    2.8610    1.6350   -3.0390 C   0  0
    2.1170    2.8280   -3.0390 C   0  0
    2.7360    3.9920   -3.0390 O   0  0
   -1.2360   -0.8400   -0.7090 H   0  0
    1.3560   -1.7760   -1.4430 H   0  0
   -0.9390   -0.8480   -3.2620 H   0  0
    0.4980   -1.5880   -3.8610 H   0  0
   -1.2400   -3.1000   -1.0740 H   0  0
   -0.7750   -3.3280   -2.6720 H   0  0
   -1.5040   -0.3340    5.4690 H   0  0
    0.2340   -2.7540    3.4490 H   0  0
   -1.5180   -2.7770    3.2580 H   0  0
   -0.8090   -2.4570    4.8380 H   0  0
   -0.9240    3.0140    2.8200 H   0  0
    0.8890    1.1760    0.2710 H   0  0
    0.1520    2.6970    0.7690 H   0  0
   -0.8200    1.4730   -0.0390 H   0  0
    0.1210   -5.1640   -1.2340 H   0  0
    1.4750   -4.2520   -1.9360 H   0  0
    1.0060   -3.9940   -0.2580 H   0  0
    2.7830   -0.5180   -3.0390 H   0  0
   -1.7520    3.4160    5.0330 H   0  0
   -1.1030    2.2680    6.2030 H   0  0
   -2.7560    2.0900    5.6170 H   0  0
    0.1430    3.6910   -3.0390 H   0  0
   -1.8750    1.0450   -3.9300 H   0  0
   -1.8240    2.5120   -2.9550 H   0  0
   -1.7870    0.9350   -2.1740 H   0  0
    3.9420    1.6720   -3.0390 H   0  0
    3.7010    4.0160   -3.0390 H   0  0
  1  2  2  0
  1  3  2  0
  1  4  1  0
  1  5  1  0
  6  4  1  0
  5  7  2  0
  5  8  1  0
  6  9  1  0
  6 10  1  0
  7 11  1  0
  7 12  1  0
  8 13  2  0
  8 14  1  0
  9 15  1  0
 10 16  1  0
 11 17  2  0
 15 18  2  0
 15 19  1  0
 17 20  1  0
 18 21  1  0
 18 22  1  0
 19 23  2  0
 21 24  2  0
 24 25  1  0
 13 17  1  0
 23 24  1  0
  4 26  1  0
  6 27  1  0
  9 28  1  0
  9 29  1  0
 10 30  1  0
 10 31  1  0
 11 32  1  0
 12 33  1  0
 12 34  1  0
 12 35  1  0
 13 36  1  0
 14 37  1  0
 14 38  1  0
 14 39  1  0
 16 40  1  0
 16 41  1  0
 16 42  1  0
 19 43  1  0
 20 44  1  0
 20 45  1  0
 20 46  1  0
 21 47  1  0
 22 48  1  0
 22 49  1  0
 22 50  1  0
 23 51  1  0
 25 52  1  0
M  END
> <Name>
CHEMBL3094487

> <IC50 nM>
27

> <Molecule_ChEMBL_ID>
CHEMBL3094487

> <Smiles>
CC[C@@H](Cc1ccc(O)cc1C)NS(=O)(=O)c1c(C)cc(C)cc1C

$$$$
CHEMBL388432
  SciTegic08162514323D

 49 51  0  0  1  0            999 V2000
    0.2520    0.6620   -1.4960 S   0  0
    0.9650   -0.0800   -2.5220 O   0  0
   -1.1880    0.4880   -1.5610 O   0  0
    0.7500   -0.0230    0.0230 N   0  0
    0.6070    2.3420   -1.6930 C   0  0
    0.3630   -1.3950    0.3140 C   0  0  2  0  0  0
    0.9060    2.8520   -2.9730 C   0  0
    0.5980    3.1990   -0.5780 C   0  0
    0.6310   -1.7270    1.7830 C   0  0
    1.0550   -2.3610   -0.6460 C   0  0
    1.1950    4.2170   -3.1310 C   0  0
    0.9200    1.9510   -4.1560 C   0  0
    0.8870    4.5650   -0.7400 C   0  0
    0.2810    2.6680    0.7750 C   0  0
    0.0160   -3.0590    2.1640 C   0  0
    1.1860    5.0740   -2.0160 C   0  0
   -1.2870   -3.3320    2.4020 C   0  0
    0.6970   -4.2750    2.3460 C   0  0
    1.4920    6.5200   -2.1880 C   0  0
   -1.4940   -4.6480    2.7270 C   0  0
   -2.3650   -2.4140    2.3440 C   0  0
   -0.2540   -5.2680    2.6970 N   0  0
   -2.7850   -5.1500    3.0140 C   0  0
   -3.6720   -2.8870    2.6250 C   0  0
   -3.8830   -4.2520    2.9610 C   0  0
   -5.1110   -4.6890    3.2250 F   0  0
    1.7750    0.0470    0.1130 H   0  0
   -0.7090   -1.3550    0.1170 H   0  0
    0.2380   -0.9450    2.4320 H   0  0
    1.7010   -1.7500    1.9820 H   0  0
    0.6930   -2.2190   -1.6640 H   0  0
    2.1350   -2.2150   -0.6290 H   0  0
    0.8540   -3.3950   -0.3630 H   0  0
    1.4260    4.6090   -4.1110 H   0  0
    0.0700    1.2700   -4.2110 H   0  0
    1.8280    1.3500   -4.1450 H   0  0
    0.9260    2.5490   -5.0660 H   0  0
    0.8790    5.2250    0.1150 H   0  0
   -0.5550    1.9690    0.7990 H   0  0
    0.0450    3.4940    1.4430 H   0  0
    1.1560    2.1520    1.1760 H   0  0
    1.7580   -4.4650    2.2440 H   0  0
    1.4570    7.0980   -1.2640 H   0  0
    0.7790    6.9630   -2.8830 H   0  0
    2.4880    6.6330   -2.6130 H   0  0
   -2.2050   -1.3750    2.0900 H   0  0
   -0.0610   -6.2250    2.8850 H   0  0
   -2.9340   -6.1900    3.2660 H   0  0
   -4.5080   -2.2030    2.5860 H   0  0
  1  2  2  0
  1  3  2  0
  1  4  1  0
  1  5  1  0
  4  6  1  0
  5  7  2  0
  5  8  1  0
  6  9  1  0
  6 10  1  0
  7 11  1  0
  7 12  1  0
  8 13  2  0
  8 14  1  0
  9 15  1  0
 11 16  2  0
 15 17  1  0
 15 18  2  0
 16 19  1  0
 17 20  1  0
 17 21  2  0
 18 22  1  0
 20 23  2  0
 21 24  1  0
 23 25  1  0
 25 26  1  0
 13 16  1  0
 20 22  1  0
 24 25  2  0
  4 27  1  0
  6 28  1  0
  9 29  1  0
  9 30  1  0
 10 31  1  0
 10 32  1  0
 10 33  1  0
 11 34  1  0
 12 35  1  0
 12 36  1  0
 12 37  1  0
 13 38  1  0
 14 39  1  0
 14 40  1  0
 14 41  1  0
 18 42  1  0
 19 43  1  0
 19 44  1  0
 19 45  1  0
 21 46  1  0
 22 47  1  0
 23 48  1  0
 24 49  1  0
M  END
> <Name>
CHEMBL388432

> <IC50 nM>
79

> <Molecule_ChEMBL_ID>
CHEMBL388432

> <Smiles>
Cc1cc(C)c(S(=O)(=O)NC(C)Cc2c[nH]c3cc(F)ccc23)c(C)c1

$$$$
CHEMBL243869
  SciTegic08162514323D

 52 54  0  0  1  0            999 V2000
    0.5630   -1.2910    1.4340 S   0  0
    1.4590   -0.8440    2.4860 O   0  0
   -0.8240   -0.9360    1.6720 O   0  0
    1.0390   -0.4280    0.0000 N   0  0
    0.6720   -3.0140    1.3220 C   0  0
    0.8540    1.0140   -0.0210 C   0  0  2  0  0  0
    0.9900   -3.7720    2.4650 C   0  0
    0.4450   -3.6540    0.0900 C   0  0
    1.0240    1.5550   -1.4410 C   0  0
    1.7850    1.6900    0.9830 C   0  0
    1.0780   -5.1720    2.3710 C   0  0
    1.2310   -3.1020    3.7700 C   0  0
    0.5350   -5.0550    0.0000 C   0  0
    0.1090   -2.8570   -1.1210 C   0  0
    0.5920    3.0040   -1.5330 C   0  0
    0.8520   -5.8150    1.1410 C   0  0
   -0.6700    3.4920   -1.5700 C   0  0
    1.4340    4.1290   -1.5980 C   0  0
    0.9450   -7.2950    1.0450 C   0  0
   -0.6970    4.8610   -1.6540 C   0  0
   -1.8670    2.7360   -1.5290 C   0  0
    0.6210    5.2870   -1.6740 N   0  0
   -1.9160    5.5780   -1.7030 C   0  0
   -3.1050    3.4260   -1.5760 C   0  0
   -3.1310    4.8460   -1.6640 C   0  0
   -4.4200    5.5550   -1.7130 C   0  0
    2.0270   -0.6270   -0.2090 H   0  0
   -0.1850    1.0960    0.2990 H   0  0
    0.4510    0.9590   -2.1520 H   0  0
    2.0610    1.4630   -1.7660 H   0  0
    1.5100    1.4240    2.0040 H   0  0
    2.8200    1.3950    0.8070 H   0  0
    1.7290    2.7740    0.8930 H   0  0
    1.3200   -5.7560    3.2480 H   0  0
    0.5020   -2.3320    4.0200 H   0  0
    2.2170   -2.6370    3.7620 H   0  0
    1.2190   -3.8460    4.5670 H   0  0
    0.3590   -5.5470   -0.9450 H   0  0
   -0.6110   -2.0590   -0.9470 H   0  0
   -0.3010   -3.5160   -1.8870 H   0  0
    1.0180   -2.4060   -1.5210 H   0  0
    2.5160    4.1490   -1.5960 H   0  0
    0.7520   -7.6930    0.0490 H   0  0
    0.2290   -7.7480    1.7310 H   0  0
    1.9430   -7.6150    1.3440 H   0  0
   -1.8480    1.6580   -1.4630 H   0  0
    0.9410    6.2270   -1.7280 H   0  0
   -1.9200    6.6560   -1.7690 H   0  0
   -4.0290    2.8650   -1.5470 H   0  0
   -4.3320    6.6390   -1.7790 H   0  0
   -4.9960    5.3220   -0.8180 H   0  0
   -4.9900    5.2150   -2.5760 H   0  0
  1  2  2  0
  1  3  2  0
  1  4  1  0
  1  5  1  0
  4  6  1  0
  5  7  2  0
  5  8  1  0
  6  9  1  0
  6 10  1  0
  7 11  1  0
  7 12  1  0
  8 13  2  0
  8 14  1  0
  9 15  1  0
 11 16  2  0
 15 17  1  0
 15 18  2  0
 16 19  1  0
 17 20  1  0
 17 21  2  0
 18 22  1  0
 20 23  2  0
 21 24  1  0
 23 25  1  0
 25 26  1  0
 13 16  1  0
 20 22  1  0
 24 25  2  0
  4 27  1  0
  6 28  1  0
  9 29  1  0
  9 30  1  0
 10 31  1  0
 10 32  1  0
 10 33  1  0
 11 34  1  0
 12 35  1  0
 12 36  1  0
 12 37  1  0
 13 38  1  0
 14 39  1  0
 14 40  1  0
 14 41  1  0
 18 42  1  0
 19 43  1  0
 19 44  1  0
 19 45  1  0
 21 46  1  0
 22 47  1  0
 23 48  1  0
 24 49  1  0
 26 50  1  0
 26 51  1  0
 26 52  1  0
M  END
> <Name>
CHEMBL243869

> <IC50 nM>
490

> <Molecule_ChEMBL_ID>
CHEMBL243869

> <Smiles>
Cc1cc(C)c(S(=O)(=O)NC(C)Cc2c[nH]c3cc(C)ccc23)c(C)c1

$$$$
CHEMBL243865
  SciTegic08162514323D

 43 45  0  0  1  0            999 V2000
    2.4180   -4.7280    2.1370 Cl  0  0
    1.5310   -3.5250    2.9820 C   0  0
    0.4100   -2.9100    2.3910 C   0  0
    1.9340   -3.1540    4.2790 C   0  0
   -0.0900   -3.3650    0.7970 S   0  0
   -0.3070   -1.9240    3.1000 C   0  0
    1.2190   -2.1720    4.9860 C   0  0
   -1.5140   -3.1050    0.6720 O   0  0
    0.2580   -4.7600    0.5900 O   0  0
    0.6740   -2.4840   -0.4960 N   0  0
   -1.6760   -1.1600    2.3980 Cl  0  0
    0.1000   -1.5570    4.3970 C   0  0
    1.7090   -1.7250    6.5680 Cl  0  0
    0.5140   -1.0410   -0.5230 C   0  0  2  0  0  0
    0.6470   -0.5140   -1.9530 C   0  0
    1.4940   -0.3750    0.4430 C   0  0
    0.2230    0.9380   -2.0450 C   0  0
   -1.0330    1.4360   -2.0820 C   0  0
    1.0740    2.0570   -2.1090 C   0  0
   -1.0510    2.8050   -2.1660 C   0  0
   -2.2360    0.6880   -2.0410 C   0  0
    0.2720    3.2230   -2.1840 N   0  0
   -2.2660    3.5290   -2.2170 C   0  0
   -3.4710    1.3870   -2.0900 C   0  0
    0.7580    4.6100   -2.2660 C   0  0
   -3.4840    2.8050   -2.1760 C   0  0
    2.7950   -3.6250    4.7340 H   0  0
    1.6800   -2.6970   -0.5080 H   0  0
   -0.4470   -0.7990    4.9410 H   0  0
   -0.5100   -0.9340   -0.1660 H   0  0
    0.0470   -1.1110   -2.6410 H   0  0
    1.6720   -0.6170   -2.3090 H   0  0
    1.4280   -0.8280    1.4320 H   0  0
    2.5180   -0.4690    0.0780 H   0  0
    1.2740    0.6880    0.5470 H   0  0
    2.1560    2.0670   -2.1060 H   0  0
   -2.2250   -0.3910   -1.9770 H   0  0
   -2.2680    4.6080   -2.2830 H   0  0
   -4.4000    0.8380   -2.0590 H   0  0
    1.8440    4.7050   -2.2660 H   0  0
    0.3730    5.1800   -1.4200 H   0  0
    0.3810    5.0740   -3.1780 H   0  0
   -4.4260    3.3340   -2.2130 H   0  0
  1  2  1  0
  2  3  2  0
  2  4  1  0
  3  5  1  0
  3  6  1  0
  4  7  2  0
  5  8  2  0
  5  9  2  0
  5 10  1  0
  6 11  1  0
  6 12  2  0
  7 13  1  0
 10 14  1  0
 14 15  1  0
 14 16  1  0
 15 17  1  0
 17 18  1  0
 17 19  2  0
 18 20  1  0
 18 21  2  0
 19 22  1  0
 20 23  2  0
 21 24  1  0
 22 25  1  0
 23 26  1  0
  7 12  1  0
 20 22  1  0
 24 26  2  0
  4 27  1  0
 10 28  1  0
 12 29  1  0
 14 30  1  0
 15 31  1  0
 15 32  1  0
 16 33  1  0
 16 34  1  0
 16 35  1  0
 19 36  1  0
 21 37  1  0
 23 38  1  0
 24 39  1  0
 25 40  1  0
 25 41  1  0
 25 42  1  0
 26 43  1  0
M  END
> <Name>
CHEMBL243865

> <IC50 nM>
2000

> <Molecule_ChEMBL_ID>
CHEMBL243865

> <Smiles>
CC(Cc1cn(C)c2ccccc12)NS(=O)(=O)c1c(Cl)cc(Cl)cc1Cl

$$$$
CHEMBL233241
  SciTegic08162514323D

 40 42  0  0  1  0            999 V2000
    3.0410   -3.6210    1.3110 Cl  0  0
    2.0450   -2.8710    2.4900 C   0  0
    0.6950   -2.5780    2.2130 C   0  0
    2.5840   -2.5430    3.7480 C   0  0
   -0.0020   -2.9610    0.6780 S   0  0
   -0.1090   -1.9670    3.1890 C   0  0
    1.7790   -1.9320    4.7250 C   0  0
   -1.4200   -2.6540    0.7300 O   0  0
    0.2700   -4.3600    0.3890 O   0  0
    0.6350   -2.0610   -0.6680 N   0  0
    0.4300   -1.6450    4.4470 C   0  0
    0.4080   -0.6250   -0.6950 C   0  0  2  0  0  0
   -0.5530   -0.9020    5.6390 Cl  0  0
    0.5880   -0.0820   -2.1130 C   0  0
    1.3050    0.0780    0.3240 C   0  0
    0.1580    1.3670   -2.2050 C   0  0
   -1.1010    1.8590   -2.2400 C   0  0
    1.0040    2.4920   -2.2700 C   0  0
   -1.1270    3.2280   -2.3240 C   0  0
   -2.3010    1.1030   -2.2010 C   0  0
    0.1930    3.6520   -2.3440 N   0  0
   -2.3460    3.9450   -2.3750 C   0  0
   -3.5370    1.7970   -2.2480 C   0  0
   -3.5610    3.2150   -2.3360 C   0  0
    3.6190   -2.7580    3.9790 H   0  0
   -1.1440   -1.7500    2.9650 H   0  0
    2.2090   -1.6880    5.6860 H   0  0
    1.6490   -2.2290   -0.7440 H   0  0
   -0.6370   -0.5700   -0.3930 H   0  0
    0.0200   -0.6760   -2.8280 H   0  0
    1.6270   -0.1740   -2.4320 H   0  0
    1.0820   -0.2660    1.3340 H   0  0
    2.3560   -0.1090    0.1070 H   0  0
    1.1470    1.1560    0.2970 H   0  0
    2.0860    2.5100   -2.2660 H   0  0
   -2.2830    0.0250   -2.1350 H   0  0
    0.5140    4.5900   -2.4000 H   0  0
   -2.3530    5.0230   -2.4410 H   0  0
   -4.4650    1.2440   -2.2190 H   0  0
   -4.5060    3.7360   -2.3710 H   0  0
  1  2  1  0
  2  3  2  0
  2  4  1  0
  3  5  1  0
  3  6  1  0
  4  7  2  0
  5  8  2  0
  5  9  2  0
  5 10  1  0
  6 11  2  0
 10 12  1  0
 11 13  1  0
 12 14  1  0
 12 15  1  0
 14 16  1  0
 16 17  1  0
 16 18  2  0
 17 19  1  0
 17 20  2  0
 18 21  1  0
 19 22  2  0
 20 23  1  0
 22 24  1  0
  7 11  1  0
 19 21  1  0
 23 24  2  0
  4 25  1  0
  6 26  1  0
  7 27  1  0
 10 28  1  0
 12 29  1  0
 14 30  1  0
 14 31  1  0
 15 32  1  0
 15 33  1  0
 15 34  1  0
 18 35  1  0
 20 36  1  0
 21 37  1  0
 22 38  1  0
 23 39  1  0
 24 40  1  0
M  END
> <Name>
CHEMBL233241

> <IC50 nM>
1300

> <Molecule_ChEMBL_ID>
CHEMBL233241

> <Smiles>
CC(Cc1c[nH]c2ccccc12)NS(=O)(=O)c1cc(Cl)ccc1Cl

$$$$
CHEMBL390657
  SciTegic08162514323D

 47 49  0  0  1  0            999 V2000
   -0.1780   -1.5370    2.2810 S   0  0
   -0.9340   -0.8360    3.3050 O   0  0
    0.1860   -2.8910    2.6640 O   0  0
   -1.2480   -1.6950    0.9180 N   0  0
    1.2710   -0.6520    1.9760 C   0  0
   -0.6840   -2.1480   -0.3420 C   0  0  2  0  0  0
    2.4610   -1.3380    1.6780 C   0  0
    1.2580    0.7520    2.0270 C   0  0
   -1.6820   -1.9370   -1.4810 C   0  0
   -0.2170   -3.6000   -0.2290 C   0  0
    3.6410   -0.6170    1.4300 C   0  0
    2.4370    1.4750    1.7790 C   0  0
   -2.1110   -0.4860   -1.5720 C   0  0
    3.6330    0.7910    1.4780 C   0  0
   -3.3710    0.0040   -1.6100 C   0  0
   -1.2660    0.6370   -1.6370 C   0  0
    4.7830    1.4940    1.2360 N   0  0
   -3.3970    1.3730   -1.6940 C   0  0
   -4.5700   -0.7500   -1.5690 C   0  0
   -2.0780    1.7970   -1.7130 N   0  0
    4.7400    2.6390    0.4920 C   0  0
   -4.6150    2.0920   -1.7420 C   0  0
   -5.8070   -0.0590   -1.6150 C   0  0
    3.6910    3.0390    0.0470 O   0  0
    6.0230    3.3890    0.2440 C   0  0
   -5.8300    1.3590   -1.7030 C   0  0
   -2.0290   -2.3200    1.1660 H   0  0
    0.1680   -1.4750   -0.4450 H   0  0
    2.4690   -2.4160    1.6390 H   0  0
    0.3420    1.2770    2.2580 H   0  0
   -2.5590   -2.5680   -1.3460 H   0  0
   -1.2500   -2.2480   -2.4320 H   0  0
    0.1210   -3.9710   -1.1950 H   0  0
    0.6000   -3.6860    0.4900 H   0  0
   -1.0290   -4.2400    0.1110 H   0  0
    4.5490   -1.1580    1.2010 H   0  0
    2.4120    2.5550    1.8220 H   0  0
   -0.1840    0.6560   -1.6330 H   0  0
    5.6540    1.1660    1.6050 H   0  0
   -4.5530   -1.8300   -1.5020 H   0  0
   -1.7560    2.7360   -1.7680 H   0  0
   -4.6250    3.1700   -1.8090 H   0  0
   -6.7350   -0.6110   -1.5860 H   0  0
    6.8950    2.9220    0.7030 H   0  0
    5.9410    4.4020    0.6390 H   0  0
    6.2070    3.4610   -0.8280 H   0  0
   -6.7760    1.8830   -1.7380 H   0  0
  1  2  2  0
  1  3  2  0
  1  4  1  0
  1  5  1  0
  4  6  1  0
  5  7  2  0
  5  8  1  0
  6  9  1  0
  6 10  1  0
  7 11  1  0
  8 12  2  0
  9 13  1  0
 11 14  2  0
 13 15  1  0
 13 16  2  0
 14 17  1  0
 15 18  1  0
 15 19  2  0
 16 20  1  0
 17 21  1  0
 18 22  2  0
 19 23  1  0
 21 24  2  0
 21 25  1  0
 22 26  1  0
 12 14  1  0
 18 20  1  0
 23 26  2  0
  4 27  1  0
  6 28  1  0
  7 29  1  0
  8 30  1  0
  9 31  1  0
  9 32  1  0
 10 33  1  0
 10 34  1  0
 10 35  1  0
 11 36  1  0
 12 37  1  0
 16 38  1  0
 17 39  1  0
 19 40  1  0
 20 41  1  0
 22 42  1  0
 23 43  1  0
 25 44  1  0
 25 45  1  0
 25 46  1  0
 26 47  1  0
M  END
> <Name>
CHEMBL390657

> <IC50 nM>
10000

> <Molecule_ChEMBL_ID>
CHEMBL390657

> <Smiles>
CC(=O)Nc1ccc(S(=O)(=O)NC(C)Cc2c[nH]c3ccccc23)cc1

$$$$
CHEMBL480800
  SciTegic08162514323D

 58 60  0  0  1  0            999 V2000
    7.2350    3.0980   -0.5330 Cl  0  0
    5.5390    2.8630   -0.6410 C   0  0
    5.0000    1.5670   -0.5510 C   0  0
    4.6840    3.9670   -0.8160 C   0  0
    3.6110    1.3730   -0.6410 C   0  0
    3.2950    3.7740   -0.9080 C   0  0
    2.7560    2.4770   -0.8180 C   0  0
    1.2810    2.2720   -0.9160 C   0  0
    0.6580    1.7950    0.0060 O   0  0
    0.6410    2.6310   -2.0660 N   0  0
   -0.8220    2.5080   -2.1500 C   0  0
    1.3790    3.1430   -3.2310 C   0  0
   -1.2210    1.2360   -2.9000 C   0  0  2  0  0  0
    2.3160    2.0760   -3.7970 C   0  0
   -0.7300    1.3300   -4.2190 O   0  0
   -2.7500    1.2290   -2.9590 C   0  0
   -0.6460   -0.0290   -2.2660 C   0  0
   -3.1860    2.3070   -3.6820 F   0  0
   -3.2560    1.2970   -1.6860 F   0  0
   -3.1780    0.0700   -3.5590 F   0  0
   -1.1150   -0.1830   -0.8810 N   0  0
   -1.0570   -1.4120   -0.2850 C   0  0
   -0.6230   -2.3630   -0.8910 O   0  0
   -1.5200   -1.5680    1.0880 C   0  0
   -1.5060   -2.7620    1.8520 C   0  0
   -2.0640   -0.5490    1.8950 C   0  0
   -2.0290   -2.4320    3.0590 N   0  0
   -1.0180   -4.0780    1.3950 N   0  0
   -2.3520   -1.1370    3.0700 N   0  0
   -2.2090   -3.2710    4.1130 C   0  0
   -1.1000   -3.7280    4.8500 C   0  0
   -3.5060   -3.6860    4.4730 C   0  0
   -1.2870   -4.5960    5.9400 C   0  0
   -3.6910   -4.5530    5.5650 C   0  0
   -2.5820   -5.0080    6.2970 C   0  0
   -2.7580   -5.8280    7.3300 F   0  0
    5.6450    0.7090   -0.4140 H   0  0
    5.0840    4.9690   -0.8850 H   0  0
    3.2070    0.3730   -0.5700 H   0  0
    2.6470    4.6270   -1.0450 H   0  0
   -1.2290    3.3910   -2.6430 H   0  0
   -1.2380    2.5080   -1.1430 H   0  0
    0.6700    3.4750   -3.9880 H   0  0
    1.9400    4.0310   -2.9380 H   0  0
    2.5840    2.3050   -4.8280 H   0  0
    3.2270    2.0060   -3.2010 H   0  0
    1.8360    1.0980   -3.7870 H   0  0
   -1.0800    2.1540   -4.5960 H   0  0
    0.4430   -0.0040   -2.2750 H   0  0
   -0.9300   -0.9120   -2.8400 H   0  0
   -1.4750    0.6040   -0.3790 H   0  0
   -2.2360    0.4940    1.6600 H   0  0
   -0.6330   -4.2130    0.4820 H   0  0
   -1.0660   -4.8670    2.0060 H   0  0
   -0.0960   -3.4240    4.5900 H   0  0
   -4.3710   -3.3460    3.9220 H   0  0
   -0.4320   -4.9430    6.5000 H   0  0
   -4.6880   -4.8650    5.8360 H   0  0
  1  2  1  0
  2  3  2  0
  2  4  1  0
  3  5  1  0
  4  6  2  0
  5  7  2  0
  7  8  1  0
  8  9  2  0
  8 10  1  0
 10 11  1  0
 10 12  1  0
 11 13  1  0
 12 14  1  0
 13 15  1  0
 13 16  1  0
 13 17  1  0
 16 18  1  0
 16 19  1  0
 16 20  1  0
 17 21  1  0
 21 22  1  0
 22 23  2  0
 22 24  1  0
 24 25  2  0
 24 26  1  0
 25 27  1  0
 25 28  1  0
 26 29  2  0
 27 30  1  0
 30 31  2  0
 30 32  1  0
 31 33  1  0
 32 34  2  0
 33 35  2  0
 35 36  1  0
  6  7  1  0
 27 29  1  0
 34 35  1  0
  3 37  1  0
  4 38  1  0
  5 39  1  0
  6 40  1  0
 11 41  1  0
 11 42  1  0
 12 43  1  0
 12 44  1  0
 14 45  1  0
 14 46  1  0
 14 47  1  0
 15 48  1  0
 17 49  1  0
 17 50  1  0
 21 51  1  0
 26 52  1  0
 28 53  1  0
 28 54  1  0
 31 55  1  0
 32 56  1  0
 33 57  1  0
 34 58  1  0
M  END
> <Name>
CHEMBL480800

> <IC50 nM>
316.23

> <Molecule_ChEMBL_ID>
CHEMBL480800

> <Smiles>
CCN(CC(O)(CNC(=O)c1cnn(-c2ccc(F)cc2)c1N)C(F)(F)F)C(=O)c1ccc(Cl)cc1

$$$$
CHEMBL137103
  SciTegic08162514323D

 51 55  0  0  0  0            999 V2000
    2.1760   -3.6470    0.3790 F   0  0
    2.6560   -3.0980   -0.7360 C   0  0
    2.1500   -1.8710   -1.2090 C   0  0
    3.6780   -3.7540   -1.4450 C   0  0
    2.6720   -1.3070   -2.3890 C   0  0
    1.0610   -1.1600   -0.4670 C   0  0
    4.1950   -3.1890   -2.6210 C   0  0
    3.6930   -1.9650   -3.0940 C   0  0
    1.0120    0.1890   -0.3650 C   0  0
    4.1860   -1.4280   -4.2070 F   0  0
    2.0650    0.8570   -0.8650 O   0  0
   -0.1130    0.8910    0.3400 C   0  0
    2.3090    2.1410   -0.5220 C   0  0
   -1.4260    0.3460    0.5470 C   0  0
    0.1890    2.1910    0.8360 C   0  0
    1.4300    2.8590    0.3530 C   0  0
    3.4690    2.7660   -1.0350 C   0  0
   -2.2460    0.9060    1.5720 C   0  0
   -2.0060   -0.7600   -0.2930 C   0  0
   -0.6910    2.7970    1.7730 C   0  0
    1.7680    4.1950    0.7170 C   0  0
    3.7830    4.0920   -0.6720 C   0  0
   -3.3890    0.2870    1.9650 N   0  0
   -1.8710    2.1330    2.1740 C   0  0
   -3.1040   -1.4120    0.1440 C   0  0
   -1.4570   -1.1460   -1.6450 C   0  0
    2.9380    4.8030    0.2090 C   0  0
   -3.7810   -1.0590    1.4550 C   0  0
   -5.2970   -1.0800    1.2360 C   0  0
   -3.4020   -2.1110    2.5000 C   0  0
    4.0670   -4.6970   -1.0860 H   0  0
    2.2870   -0.3650   -2.7560 H   0  0
    0.3180   -1.7890    0.0000 H   0  0
    4.9810   -3.6990   -3.1620 H   0  0
    4.1190    2.2270   -1.7090 H   0  0
   -0.4920    3.7620    2.2110 H   0  0
    1.1540    4.7850    1.3810 H   0  0
    4.6720    4.5650   -1.0650 H   0  0
   -3.9940    0.7270    2.6310 H   0  0
   -2.4840    2.5860    2.9390 H   0  0
   -3.5200   -2.2090   -0.4570 H   0  0
   -2.2750   -1.2770   -2.3540 H   0  0
   -0.7480   -0.3910   -1.9860 H   0  0
   -0.9240   -2.0940   -1.5720 H   0  0
    3.1860    5.8150    0.4920 H   0  0
   -5.6110   -0.3420    0.4980 H   0  0
   -5.8240   -0.8650    2.1660 H   0  0
   -5.6210   -2.0610    0.8870 H   0  0
   -2.3300   -2.1290    2.6880 H   0  0
   -3.7010   -3.1050    2.1720 H   0  0
   -3.9040   -1.9100    3.4470 H   0  0
  1  2  1  0
  2  3  2  0
  2  4  1  0
  3  5  1  0
  3  6  1  0
  4  7  2  0
  5  8  2  0
  6  9  2  0
  8 10  1  0
  9 11  1  0
  9 12  1  0
 11 13  1  0
 12 14  2  0
 12 15  1  0
 13 16  2  0
 13 17  1  0
 14 18  1  0
 14 19  1  0
 15 20  2  0
 16 21  1  0
 17 22  2  0
 18 23  1  0
 18 24  2  0
 19 25  2  0
 19 26  1  0
 21 27  2  0
 23 28  1  0
 28 29  1  0
 28 30  1  0
  7  8  1  0
 15 16  1  0
 20 24  1  0
 22 27  1  0
 25 28  1  0
  4 31  1  0
  5 32  1  0
  6 33  1  0
  7 34  1  0
 17 35  1  0
 20 36  1  0
 21 37  1  0
 22 38  1  0
 23 39  1  0
 24 40  1  0
 25 41  1  0
 26 42  1  0
 26 43  1  0
 26 44  1  0
 27 45  1  0
 29 46  1  0
 29 47  1  0
 29 48  1  0
 30 49  1  0
 30 50  1  0
 30 51  1  0
M  END
> <Name>
CHEMBL137103

> <IC50 nM>
371

> <Molecule_ChEMBL_ID>
CHEMBL137103

> <Smiles>
CC1=CC(C)(C)Nc2ccc3c(c21)/C(=C/c1cc(F)ccc1F)Oc1ccccc1-3

$$$$
CHEMBL361245
  SciTegic08162514323D

 58 62  0  0  1  0            999 V2000
    2.5330   -4.6110   -0.1070 Cl  0  0
    2.1390   -2.9360   -0.3570 C   0  0
    3.1910   -1.8770   -0.4120 C   0  0
    0.8300   -2.6250   -0.4980 C   0  0
    4.4840   -2.1450   -0.1090 C   0  0
    2.7700   -0.4630   -0.8200 C   0  0  1  0  0  0
    0.3460   -1.2110   -0.7310 C   0  0  3  0  0  0
    5.5470   -1.1250   -0.0490 C   0  0
    1.3670   -0.1580   -0.2340 C   0  0  3  0  0  0
    3.7340    0.6720   -0.4300 C   0  0  3  0  0  0
    2.7680   -0.3930   -2.3540 C   0  0
   -0.9900   -0.9180   -0.0270 C   0  0  3  0  0  0
    6.7050   -1.4630    0.0210 O   0  0
    5.1600    0.3360   -0.0610 C   0  0  1  0  0  0
    0.8570    1.2770   -0.5000 C   0  0
    4.2050    0.8420    1.0000 C   0  0
   -1.5270    0.4750   -0.3970 C   0  0  2  0  0  0
   -2.1800   -1.8160   -0.3650 C   0  0
   -0.5330    1.5270    0.1130 C   0  0
   -2.8870    0.4380    0.3220 C   0  0  1  0  0  0
   -1.7520    0.6190   -1.9100 C   0  0
   -3.4060   -0.9710   -0.0040 C   0  0
   -2.6890    0.5330    1.7280 O   0  0
   -3.8400    1.5410   -0.0700 C   0  0
   -3.8320    0.4670    2.4060 C   0  0
   -4.8750    1.2970   -0.6450 O   0  0
   -3.4610    2.9570    0.2750 C   0  0
   -4.9140    0.3140    1.8890 O   0  0
   -3.6970    0.5960    3.9000 C   0  0
    0.0880   -3.4080   -0.4450 H   0  0
    4.7990   -3.1500    0.1170 H   0  0
    0.2090   -1.0980   -1.8070 H   0  0
    1.4470   -0.2580    0.8500 H   0  0
    3.6040    1.6050   -0.9790 H   0  0
    3.7660   -0.5370   -2.7700 H   0  0
    2.4000    0.5740   -2.6950 H   0  0
    2.1170   -1.1620   -2.7740 H   0  0
   -0.8260   -0.9750    1.0410 H   0  0
    5.9260    1.0270   -0.4100 H   0  0
    1.5450    2.0100   -0.0780 H   0  0
    0.8280    1.4690   -1.5720 H   0  0
    3.8380    0.1390    1.7460 H   0  0
    4.3500    1.8590    1.3650 H   0  0
   -2.1880   -2.0610   -1.4180 H   0  0
   -2.1500   -2.7460    0.1850 H   0  0
   -0.8830    2.5290   -0.1330 H   0  0
   -0.4550    1.4820    1.2010 H   0  0
   -2.4450   -0.1310   -2.2910 H   0  0
   -0.8130    0.5100   -2.4510 H   0  0
   -2.1600    1.6020   -2.1470 H   0  0
   -4.0940   -0.9610   -0.8380 H   0  0
   -3.9410   -1.3930    0.8360 H   0  0
   -4.3180    3.6190    0.3960 H   0  0
   -2.8260    3.3730   -0.5080 H   0  0
   -2.8970    2.9730    1.2070 H   0  0
   -4.6800    0.5330    4.3670 H   0  0
   -3.0230   -0.1720    4.2790 H   0  0
   -3.2700    1.5660    4.1500 H   0  0
  1  2  1  0
  2  3  1  0
  2  4  2  0
  3  5  2  0
  3  6  1  0
  4  7  1  0
  5  8  1  0
  6  9  1  0
  6 10  1  0
  6 11  1  0
  7 12  1  0
  8 13  2  0
  8 14  1  0
  9 15  1  0
 10 16  1  0
 12 17  1  0
 12 18  1  0
 15 19  1  0
 17 20  1  0
 17 21  1  0
 18 22  1  0
 20 23  1  0
 20 24  1  0
 23 25  1  0
 24 26  2  0
 24 27  1  0
 25 28  2  0
 25 29  1  0
  7  9  1  0
 10 14  1  0
 14 16  1  0
 17 19  1  0
 20 22  1  0
  4 30  1  0
  5 31  1  0
  7 32  1  0
  9 33  1  0
 10 34  1  0
 11 35  1  0
 11 36  1  0
 11 37  1  0
 12 38  1  0
 14 39  1  0
 15 40  1  0
 15 41  1  0
 16 42  1  0
 16 43  1  0
 18 44  1  0
 18 45  1  0
 19 46  1  0
 19 47  1  0
 21 48  1  0
 21 49  1  0
 21 50  1  0
 22 51  1  0
 22 52  1  0
 27 53  1  0
 27 54  1  0
 27 55  1  0
 29 56  1  0
 29 57  1  0
 29 58  1  0
M  END
> <Name>
CHEMBL361245

> <IC50 nM>
0.9

> <Molecule_ChEMBL_ID>
CHEMBL361245

> <Smiles>
CC(=O)O[C@]1(C(C)=O)CCC2C3C=C(Cl)C4=CC(=O)[C@@H]5CC5[C@]4(C)C3CC[C@@]21C

$$$$
CHEMBL3126944
  SciTegic08162514323D

 51 54  0  0  1  0            999 V2000
    1.4650    4.8830    0.6910 F   0  0
    0.3830    4.1190    0.5530 C   0  0
    0.4590    2.7310    0.7810 C   0  0
   -0.8500    4.6920    0.1740 C   0  0
   -0.6990    1.9380    0.6290 C   0  0
   -2.0080    3.8870    0.0230 C   0  0
   -1.9450    2.5040    0.2480 C   0  0
   -0.6130    0.4880    0.8690 C   0  0
   -3.4180    4.2540   -0.3650 C   0  0
   -3.1230    1.9080    0.0590 O   0  0
    0.6210   -0.1210    0.2030 C   0  0
   -1.9080   -0.2250    0.4750 C   0  0
   -0.4590    0.6330    2.3830 C   0  0
   -4.1250    2.8670   -0.3240 C   0  0
    0.4140   -0.3960   -1.2870 C   0  0  1  0  0  0
   -0.7500   -1.1760   -1.4340 O   0  0
    0.1700    0.9610   -1.9490 C   0  0
    1.5820   -1.1560   -1.9140 C   0  0
    1.0170    1.8930   -1.4100 F   0  0
   -1.1290    1.3460   -1.7360 F   0  0
    0.4000    0.8570   -3.2970 F   0  0
    1.9160   -2.4000   -1.1190 C   0  0
    2.8750   -2.4450   -0.1050 N   0  0
    1.3710   -3.6860   -1.2230 C   0  0
    2.8710   -3.7460    0.3570 C   0  0
    1.9450   -4.5350   -0.3200 C   0  0
    3.6150   -4.3970    1.3650 C   0  0
    1.7360   -5.8790   -0.0530 N   0  0
    3.4610   -5.7340    1.6860 N   0  0
    2.5120   -6.4530    0.9590 C   0  0
    1.3960    2.2790    1.0700 H   0  0
   -0.9160    5.7540   -0.0040 H   0  0
   -3.4420    4.6920   -1.3530 H   0  0
   -3.8440    4.9470    0.3440 H   0  0
    0.9300   -1.0290    0.7230 H   0  0
    1.4940    0.5120    0.3610 H   0  0
   -2.7270    0.0160    1.1520 H   0  0
   -1.7720   -1.3070    0.4880 H   0  0
   -2.2150    0.0590   -0.5330 H   0  0
   -1.2560    1.2520    2.7930 H   0  0
   -0.4790   -0.3420    2.8670 H   0  0
    0.4920    1.1070    2.6270 H   0  0
   -4.9260    2.8420    0.4020 H   0  0
   -4.5260    2.5860   -1.2870 H   0  0
   -0.5670   -2.0410   -1.0390 H   0  0
    2.4650   -0.5210   -1.9800 H   0  0
    1.3530   -1.4340   -2.9430 H   0  0
    3.4430   -1.6970    0.2170 H   0  0
    0.5980   -3.9650   -1.9280 H   0  0
    4.3460   -3.8220    1.9160 H   0  0
    2.3670   -7.4980    1.1880 H   0  0
  1  2  1  0
  2  3  2  0
  2  4  1  0
  3  5  1  0
  4  6  2  0
  5  7  2  0
  5  8  1  0
  6  9  1  0
  7 10  1  0
  8 11  1  0
  8 12  1  0
  8 13  1  0
  9 14  1  0
 11 15  1  0
 15 16  1  0
 15 17  1  0
 15 18  1  0
 17 19  1  0
 17 20  1  0
 17 21  1  0
 18 22  1  0
 22 23  1  0
 22 24  2  0
 23 25  1  0
 24 26  1  0
 25 27  1  0
 26 28  1  0
 27 29  2  0
 28 30  2  0
  6  7  1  0
 10 14  1  0
 25 26  2  0
 29 30  1  0
  3 31  1  0
  4 32  1  0
  9 33  1  0
  9 34  1  0
 11 35  1  0
 11 36  1  0
 12 37  1  0
 12 38  1  0
 12 39  1  0
 13 40  1  0
 13 41  1  0
 13 42  1  0
 14 43  1  0
 14 44  1  0
 16 45  1  0
 18 46  1  0
 18 47  1  0
 23 48  1  0
 24 49  1  0
 27 50  1  0
 30 51  1  0
M  END
> <Name>
CHEMBL3126944

> <IC50 nM>
24

> <Molecule_ChEMBL_ID>
CHEMBL3126944

> <Smiles>
CC(C)(CC(O)(Cc1cc2ncncc2[nH]1)C(F)(F)F)c1cc(F)cc2c1OCC2

$$$$
CHEMBL373841
  SciTegic08162514323D

 71 75  0  0  1  0            999 V2000
   -5.5270    1.9240    0.6370 O   0  0
   -4.9120    0.9080    0.4020 C   0  0
   -4.4630    0.0160    1.4770 C   0  0
   -4.5590    0.4880   -1.0000 C   0  0
   -3.3220   -0.6910    1.3420 C   0  0
   -3.0860    0.0590   -1.1250 C   0  0
   -2.4550   -0.5000    0.1470 C   0  0
   -2.9120   -1.6620    2.4340 C   0  0
   -1.1250   -0.7850    0.2090 C   0  0
   -1.5610   -2.3400    2.1500 C   0  0
   -0.1870   -0.5250   -0.9770 C   0  0  1  0  0  0
   -0.5660   -1.3480    1.5180 C   0  0  1  0  0  0
   -0.0040    0.9390   -1.2170 C   0  0
    1.1930   -1.2150   -0.8730 C   0  0
    0.8180   -2.0000    1.3970 C   0  0  1  0  0  0
   -0.4370    1.8710   -0.2540 C   0  0
    0.6060    1.3870   -2.4060 C   0  0
    1.7660   -1.1330    0.5550 C   0  0  1  0  0  0
    1.5880   -2.1640    2.7110 C   0  0
   -1.0080    1.4650    0.8610 O   0  0
   -0.2640    3.2480   -0.4860 C   0  0
    1.0160    0.5220   -3.3140 O   0  0
    0.7750    2.7640   -2.6290 C   0  0
    3.1430   -1.7870    0.8320 C   0  0  2  0  0  0
    1.7810    0.3130    1.1090 C   0  0
    3.0760   -2.0410    2.3520 C   0  0
   -1.4240    2.4490    1.7970 C   0  0
    0.3440    3.6970   -1.6720 C   0  0
    1.6210    1.0310   -4.4940 C   0  0
    4.2090   -0.9080    0.5180 O   0  0
    3.3590   -3.0310    0.0840 C   0  0
    0.5060    4.9880   -1.8850 O   0  0
    3.5510   -4.0330   -0.5290 C   0  0
    0.0180    5.8910   -0.9040 C   0  0
    3.7930   -5.2540   -1.2910 C   0  0
   -5.0550   -0.0680    2.3750 H   0  0
   -5.2030   -0.3440   -1.2750 H   0  0
   -4.7730    1.2910   -1.7030 H   0  0
   -2.5350    0.9410   -1.4370 H   0  0
   -2.9840   -0.6680   -1.9320 H   0  0
   -2.8500   -1.1170    3.3770 H   0  0
   -3.6890   -2.4200    2.5670 H   0  0
   -1.7130   -3.1880    1.4820 H   0  0
   -1.1680   -2.7500    3.0800 H   0  0
   -0.6640   -0.9220   -1.8730 H   0  0
   -0.4770   -0.5060    2.2050 H   0  0
    1.9020   -0.7890   -1.5840 H   0  0
    1.0780   -2.2580   -1.1780 H   0  0
    0.7110   -2.9790    0.9410 H   0  0
    1.3180   -1.3870    3.4100 H   0  0
    1.3650   -3.1090    3.1840 H   0  0
   -0.5960    3.9630    0.2520 H   0  0
    1.2420    3.1060   -3.5410 H   0  0
    0.8050    0.6110    1.4940 H   0  0
    2.0630    1.0220    0.3300 H   0  0
    2.5020    0.4060    1.9220 H   0  0
    3.4920   -1.2070    2.9060 H   0  0
    3.6370   -2.9140    2.6600 H   0  0
   -1.8890    2.0880    2.7130 H   0  0
   -2.1330    3.1130    1.3030 H   0  0
   -0.5530    3.0430    2.0760 H   0  0
    1.9510    0.2970   -5.2290 H   0  0
    2.4860    1.6250   -4.2030 H   0  0
    0.9080    1.6950   -4.9820 H   0  0
    4.1390   -0.6990   -0.4280 H   0  0
    0.2600    6.9040   -1.2230 H   0  0
   -1.0390    5.6780   -0.7380 H   0  0
    0.5470    5.7010    0.0290 H   0  0
    4.7720   -5.2130   -1.7700 H   0  0
    3.7620   -6.1170   -0.6270 H   0  0
    3.0290   -5.3730   -2.0610 H   0  0
  1  2  2  0
  2  3  1  0
  2  4  1  0
  3  5  2  0
  4  6  1  0
  5  7  1  0
  5  8  1  0
  7  9  2  0
  8 10  1  0
  9 11  1  0
  9 12  1  0
 11 13  1  0
 11 14  1  0
 12 15  1  0
 13 16  2  0
 13 17  1  0
 14 18  1  0
 15 19  1  0
 16 20  1  0
 16 21  1  0
 17 22  1  0
 17 23  2  0
 18 24  1  0
 18 25  1  0
 19 26  1  0
 20 27  1  0
 21 28  2  0
 22 29  1  0
 24 30  1  0
 24 31  1  0
 28 32  1  0
 31 33  3  0
 32 34  1  0
 33 35  1  0
  6  7  1  0
 12 10  1  0
 15 18  1  0
 23 28  1  0
 24 26  1  0
  3 36  1  0
  4 37  1  0
  4 38  1  0
  6 39  1  0
  6 40  1  0
  8 41  1  0
  8 42  1  0
 10 43  1  0
 10 44  1  0
 11 45  1  0
 12 46  1  0
 14 47  1  0
 14 48  1  0
 15 49  1  0
 19 50  1  0
 19 51  1  0
 21 52  1  0
 23 53  1  0
 25 54  1  0
 25 55  1  0
 25 56  1  0
 26 57  1  0
 26 58  1  0
 27 59  1  0
 27 60  1  0
 27 61  1  0
 29 62  1  0
 29 63  1  0
 29 64  1  0
 30 65  1  0
 34 66  1  0
 34 67  1  0
 34 68  1  0
 35 69  1  0
 35 70  1  0
 35 71  1  0
M  END
> <Name>
CHEMBL373841

> <IC50 nM>
481.5

> <Molecule_ChEMBL_ID>
CHEMBL373841

> <Smiles>
CC#C[C@]1(O)CC[C@H]2[C@@H]3CCC4=CC(=O)CCC4=C3[C@@H](c3c(OC)cc(OC)cc3OC)C[C@@]21C

$$$$
CHEMBL219205
  SciTegic08162514323D

 51 52  0  0  1  0            999 V2000
    3.0700    0.8400   -5.1660 F   0  0
    1.9080    0.7560   -4.5230 C   0  0
    1.8670    0.2680   -3.2050 C   0  0
    0.7210    1.1540   -5.1600 C   0  0
    0.6410    0.1800   -2.5230 C   0  0
   -0.5040    1.0640   -4.4800 C   0  0
   -0.5510    0.5780   -3.1620 C   0  0
    0.6090   -0.3360   -1.1290 C   0  0
   -1.7070    0.5000   -2.5330 O   0  0
    0.4750    1.0490   -0.4980 C   0  0
    1.9200   -1.0310   -0.7560 C   0  0
   -0.6150   -1.2190   -0.8830 C   0  0
   -2.8520    1.0410   -3.1760 C   0  0
    0.6700    1.0290    1.0180 C   0  0  1  0  0  0
    2.0510    0.9320    1.2830 O   0  0
    0.1780    2.3790    1.5390 C   0  0
   -0.0290   -0.1540    1.6880 C   0  0
    0.7070    3.3870    0.7740 F   0  0
    0.5720    2.5390    2.8420 F   0  0
   -1.1920    2.4240    1.4690 F   0  0
    0.0410   -0.0330    3.1410 N   0  0
   -1.2890   -0.0740    3.7620 C   0  0
    0.9280   -1.0410    3.7370 C   0  0
   -1.8890   -1.4960    3.7190 C   0  0
    0.2950   -2.4470    3.6990 C   0  0
   -0.9840   -2.4140    4.3150 O   0  0
    2.7810   -0.0370   -2.7150 H   0  0
    0.7480    1.5290   -6.1740 H   0  0
   -1.4140    1.3710   -4.9750 H   0  0
   -0.4840    1.5000   -0.7580 H   0  0
    1.1620    1.7540   -0.9670 H   0  0
    2.2170   -1.7660   -1.5040 H   0  0
    1.8240   -1.5470    0.1990 H   0  0
    2.7270   -0.3050   -0.6640 H   0  0
   -0.4260   -1.9730   -0.1190 H   0  0
   -0.9080   -1.7360   -1.7970 H   0  0
   -1.4630   -0.6170   -0.5550 H   0  0
   -2.6780    2.1040   -3.3460 H   0  0
   -3.0650    0.4370   -4.0590 H   0  0
   -3.6990    0.9470   -2.4960 H   0  0
    2.2420    0.0000    1.4670 H   0  0
    0.4260   -1.0960    1.3790 H   0  0
   -1.0720   -0.2090    1.3770 H   0  0
   -1.9510    0.6330    3.2640 H   0  0
   -1.2050    0.2620    4.7970 H   0  0
    1.8850   -1.0410    3.2150 H   0  0
    1.1410   -0.7580    4.7680 H   0  0
   -2.8320   -1.5370    4.2660 H   0  0
   -2.0880   -1.8130    2.6940 H   0  0
    0.9140   -3.1680    4.2350 H   0  0
    0.1820   -2.8070    2.6740 H   0  0
  1  2  1  0
  2  3  2  0
  2  4  1  0
  3  5  1  0
  4  6  2  0
  5  7  2  0
  5  8  1  0
  7  9  1  0
  8 10  1  0
  8 11  1  0
  8 12  1  0
  9 13  1  0
 10 14  1  0
 14 15  1  0
 14 16  1  0
 14 17  1  0
 16 18  1  0
 16 19  1  0
 16 20  1  0
 17 21  1  0
 21 22  1  0
 21 23  1  0
 22 24  1  0
 23 25  1  0
 24 26  1  0
  6  7  1  0
 25 26  1  0
  3 27  1  0
  4 28  1  0
  6 29  1  0
 10 30  1  0
 10 31  1  0
 11 32  1  0
 11 33  1  0
 11 34  1  0
 12 35  1  0
 12 36  1  0
 12 37  1  0
 13 38  1  0
 13 39  1  0
 13 40  1  0
 15 41  1  0
 17 42  1  0
 17 43  1  0
 22 44  1  0
 22 45  1  0
 23 46  1  0
 23 47  1  0
 24 48  1  0
 24 49  1  0
 25 50  1  0
 25 51  1  0
M  END
> <Name>
CHEMBL219205

> <IC50 nM>
2000

> <Molecule_ChEMBL_ID>
CHEMBL219205

> <Smiles>
COc1ccc(F)cc1C(C)(C)CC(O)(CN1CCOCC1)C(F)(F)F

$$$$
CHEMBL218830
  SciTegic08162514323D

 57 58  0  0  1  0            999 V2000
   -4.9550    0.3870   -0.6000 F   0  0
   -4.0020    1.2380   -0.2320 C   0  0
   -2.8980    0.7850    0.5120 C   0  0
   -4.0960    2.5960   -0.5880 C   0  0
   -1.8910    1.6860    0.9000 C   0  0
   -3.0900    3.4940   -0.2010 C   0  0
   -1.9840    3.0450    0.5430 C   0  0
   -0.7280    1.1930    1.6880 C   0  0
   -1.0450    3.8980    0.9000 O   0  0
    0.2230    1.1800    0.4880 C   0  0
   -0.9820   -0.2030    2.2540 C   0  0
   -0.3080    2.1990    2.7600 C   0  0
   -1.1270    5.2270    0.4040 C   0  0
    1.5650    0.5230    0.8090 C   0  0  3  0  0  0
    1.8090    0.6640    2.1900 O   0  0
    2.6310    1.3200    0.0530 C   0  0
    1.5900   -0.9670    0.4670 C   0  0
    2.7090    2.5860    0.5720 F   0  0
    2.2910    1.3910   -1.2750 F   0  0
    3.8440    0.6950    0.1820 F   0  0
    1.4420   -1.1640   -0.9730 N   0  0
    2.5200   -2.0000   -1.5100 C   0  0
    0.1080   -1.6800   -1.3440 C   0  0
    2.3890   -3.4840   -1.0680 C   0  0  1  0  0  0
    0.1060   -3.1820   -1.7320 C   0  0  1  0  0  0
    1.0270   -3.8730   -0.9040 O   0  0
    3.0350   -4.4420   -2.0720 C   0  0
   -1.2670   -3.8320   -1.5550 C   0  0
   -2.8260   -0.2600    0.7850 H   0  0
   -4.9410    2.9490   -1.1600 H   0  0
   -3.1660    4.5370   -0.4770 H   0  0
    0.3690    2.1890    0.1020 H   0  0
   -0.2480    0.6990   -0.3690 H   0  0
   -1.8960   -0.2400    2.8480 H   0  0
   -0.1560   -0.5180    2.8930 H   0  0
   -1.0780   -0.9340    1.4490 H   0  0
   -1.1540    2.7890    3.1150 H   0  0
    0.4400    2.8890    2.3710 H   0  0
    0.1230    1.6860    3.6190 H   0  0
   -0.2850    5.7930    0.8050 H   0  0
   -1.2030    5.1800   -0.6820 H   0  0
   -2.0430    5.6780    0.7830 H   0  0
    2.6900    0.2990    2.3630 H   0  0
    0.7930   -1.4940    0.9900 H   0  0
    2.5200   -1.4240    0.8030 H   0  0
    2.4900   -1.9340   -2.5980 H   0  0
    3.4880   -1.5980   -1.2130 H   0  0
   -0.5960   -1.5020   -0.5270 H   0  0
   -0.2710   -1.0980   -2.1860 H   0  0
    2.8600   -3.6250   -0.0960 H   0  0
    0.4280   -3.3070   -2.7680 H   0  0
    2.9490   -5.4810   -1.7560 H   0  0
    4.0960   -4.2170   -2.1910 H   0  0
    2.5650   -4.3520   -3.0510 H   0  0
   -1.2540   -4.8870   -1.8280 H   0  0
   -2.0120   -3.3360   -2.1760 H   0  0
   -1.5960   -3.7620   -0.5180 H   0  0
  1  2  1  0
  2  3  2  0
  2  4  1  0
  3  5  1  0
  4  6  2  0
  5  7  2  0
  5  8  1  0
  7  9  1  0
  8 10  1  0
  8 11  1  0
  8 12  1  0
  9 13  1  0
 10 14  1  0
 14 15  1  0
 14 16  1  0
 14 17  1  0
 16 18  1  0
 16 19  1  0
 16 20  1  0
 17 21  1  0
 21 22  1  0
 21 23  1  0
 22 24  1  0
 23 25  1  0
 24 26  1  0
 24 27  1  0
 25 28  1  0
  6  7  1  0
 25 26  1  0
  3 29  1  0
  4 30  1  0
  6 31  1  0
 10 32  1  0
 10 33  1  0
 11 34  1  0
 11 35  1  0
 11 36  1  0
 12 37  1  0
 12 38  1  0
 12 39  1  0
 13 40  1  0
 13 41  1  0
 13 42  1  0
 15 43  1  0
 17 44  1  0
 17 45  1  0
 22 46  1  0
 22 47  1  0
 23 48  1  0
 23 49  1  0
 24 50  1  0
 25 51  1  0
 27 52  1  0
 27 53  1  0
 27 54  1  0
 28 55  1  0
 28 56  1  0
 28 57  1  0
M  END
> <Name>
CHEMBL218830

> <IC50 nM>
110

> <Molecule_ChEMBL_ID>
CHEMBL218830

> <Smiles>
COc1ccc(F)cc1C(C)(C)CC(O)(CN1C[C@H](C)O[C@@H](C)C1)C(F)(F)F

$$$$
CHEMBL182058
  SciTegic08162514323D

 80 84  0  0  1  0            999 V2000
    0.5680    3.7850   -2.1560 S   0  0
    1.5310    3.9750   -1.0860 O   0  0
   -0.0650    2.4780   -2.1350 O   0  0
   -0.5980    4.8930   -1.9610 N   0  0
    1.3980    4.0000   -3.7250 C   0  0
   -1.8260    4.5200   -1.4750 C   0  0
   -1.9510    3.8610   -0.2270 C   0  0
   -2.9750    4.8030   -2.2380 C   0  0
   -3.2340    3.4920    0.2420 C   0  0
   -0.7360    3.5590    0.5900 C   0  0
   -4.2440    4.4340   -1.7680 C   0  0
   -3.3970    2.8530    1.4450 N   0  0
   -4.3750    3.7810   -0.5330 C   0  0
   -3.2340    3.5760    2.7150 C   0  0
   -3.7400    1.4240    1.4790 C   0  0
   -4.5370    3.7790    3.4000 C   0  0
   -2.8200    0.6210    0.6310 C   0  0
   -5.4320    4.7730    2.9550 C   0  0
   -4.8770    2.9750    4.5020 C   0  0
   -3.1500    0.3530   -0.7090 C   0  0
   -1.6190    0.1270    1.1680 C   0  0
   -5.1230    5.5470    1.9160 F   0  0
   -6.6620    4.9550    3.6110 C   0  0
   -6.1080    3.1560    5.1560 C   0  0
   -2.2810   -0.4040   -1.5100 C   0  0
   -0.7500   -0.6330    0.3670 C   0  0
   -7.0020    4.1460    4.7110 C   0  0
   -1.0780   -0.9010   -0.9750 C   0  0
   -8.1680    4.3180    5.3280 F   0  0
   -0.2620   -1.6130   -1.7270 O   0  0
    0.3770   -2.6170   -1.1640 C   0  0
    1.7050   -2.9060   -1.5310 C   0  0
   -0.2640   -3.4080   -0.1930 C   0  0
    2.3910   -3.9770   -0.9340 C   0  0
    0.4200   -4.4810    0.4060 C   0  0
    3.6350   -4.2440   -1.2790 O   0  0
    1.7440   -4.7640    0.0350 C   0  0
    4.2830   -5.3360   -0.6460 C   0  0
    5.7070   -5.4690   -1.1910 C   0  0  1  0  0  0
    6.4000   -4.2420   -0.9390 O   0  0
    6.4410   -6.6760   -0.5880 C   0  0
    7.7400   -4.2010   -1.0660 C   0  0
    7.8690   -6.7640   -1.1370 C   0  0  2  0  0  0
    8.3030   -3.1540   -1.2890 O   0  0
    8.6080   -5.4380   -0.9180 C   0  0
    7.8300   -7.0630   -2.5200 O   0  0
   -0.4240    5.8500   -2.1970 H   0  0
    2.1970    3.2790   -3.9100 H   0  0
    1.8340    4.9980   -3.7730 H   0  0
    0.6760    3.9120   -4.5350 H   0  0
   -2.8970    5.3050   -3.1910 H   0  0
   -0.2850    2.6290    0.2420 H   0  0
   -0.0470    4.4020    0.5450 H   0  0
   -1.0240    3.4180    1.6330 H   0  0
   -5.1210    4.6520   -2.3570 H   0  0
   -5.3630    3.5060   -0.1910 H   0  0
   -2.7700    4.5430    2.5200 H   0  0
   -2.5650    3.0120    3.3650 H   0  0
   -4.7640    1.2930    1.1290 H   0  0
   -3.6920    1.0660    2.5080 H   0  0
   -4.1950    2.2110    4.8500 H   0  0
   -4.0720    0.7300   -1.1290 H   0  0
   -1.3590    0.3280    2.1970 H   0  0
   -7.3500    5.7150    3.2700 H   0  0
   -6.3630    2.5350    6.0020 H   0  0
   -2.5390   -0.6080   -2.5390 H   0  0
    0.1720   -1.0100    0.7830 H   0  0
    2.1990   -2.2990   -2.2750 H   0  0
   -1.2810   -3.1920    0.0920 H   0  0
   -0.0760   -5.0860    1.1500 H   0  0
    2.2680   -5.5880    0.4980 H   0  0
    3.7070   -6.2400   -0.8500 H   0  0
    4.2970   -5.1510    0.4280 H   0  0
    5.6450   -5.5900   -2.2730 H   0  0
    6.4790   -6.5760    0.4980 H   0  0
    5.8950   -7.5980   -0.7950 H   0  0
    8.4120   -7.5800   -0.6580 H   0  0
    9.4810   -5.3620   -1.5660 H   0  0
    9.0000   -5.4340    0.1000 H   0  0
    7.4860   -7.9630   -2.6090 H   0  0
  1  2  2  0
  1  3  2  0
  1  4  1  0
  1  5  1  0
  4  6  1  0
  6  7  2  0
  6  8  1  0
  7  9  1  0
  7 10  1  0
  8 11  2  0
  9 12  1  0
  9 13  2  0
 12 14  1  0
 12 15  1  0
 14 16  1  0
 15 17  1  0
 16 18  2  0
 16 19  1  0
 17 20  2  0
 17 21  1  0
 18 22  1  0
 18 23  1  0
 19 24  2  0
 20 25  1  0
 21 26  2  0
 23 27  2  0
 25 28  2  0
 27 29  1  0
 28 30  1  0
 30 31  1  0
 31 32  2  0
 31 33  1  0
 32 34  1  0
 33 35  2  0
 34 36  1  0
 34 37  2  0
 36 38  1  0
 39 38  1  0
 39 40  1  0
 39 41  1  0
 40 42  1  0
 41 43  1  0
 42 44  2  0
 42 45  1  0
 43 46  1  0
 11 13  1  0
 24 27  1  0
 26 28  1  0
 35 37  1  0
 43 45  1  0
  4 47  1  0
  5 48  1  0
  5 49  1  0
  5 50  1  0
  8 51  1  0
 10 52  1  0
 10 53  1  0
 10 54  1  0
 11 55  1  0
 13 56  1  0
 14 57  1  0
 14 58  1  0
 15 59  1  0
 15 60  1  0
 19 61  1  0
 20 62  1  0
 21 63  1  0
 23 64  1  0
 24 65  1  0
 25 66  1  0
 26 67  1  0
 32 68  1  0
 33 69  1  0
 35 70  1  0
 37 71  1  0
 38 72  1  0
 38 73  1  0
 39 74  1  0
 41 75  1  0
 41 76  1  0
 43 77  1  0
 45 78  1  0
 45 79  1  0
 46 80  1  0
M  END
> <Name>
CHEMBL182058

> <IC50 nM>
25

> <Molecule_ChEMBL_ID>
CHEMBL182058

> <Smiles>
Cc1c(NS(C)(=O)=O)cccc1N(Cc1ccc(Oc2cccc(OC[C@@H]3C[C@@H](O)CC(=O)O3)c2)cc1)Cc1ccc(F)cc1F

$$$$
CHEMBL307754
  SciTegic08162514323D

 57 59  0  0  0  0            999 V2000
    1.3220    4.9440    1.3590 S   0  0
    1.2400    5.1020   -0.0820 O   0  0
    0.5060    5.9010    2.0880 O   0  0
    0.7710    3.4630    1.7190 N   0  0
    3.0250    5.1350    1.8670 C   0  0
    1.1800    2.3810    0.9810 C   0  0
    0.5600    1.1170    1.1230 C   0  0
    2.2380    2.5450    0.0650 C   0  0
    1.0120    0.0260    0.3420 C   0  0
   -0.5650    0.9360    2.0920 C   0  0
    2.6820    1.4590   -0.7050 C   0  0
    0.4350   -1.2150    0.4530 N   0  0
    2.0700    0.2030   -0.5680 C   0  0
   -0.1350   -1.8920   -0.7210 C   0  0
    0.3830   -1.8890    1.7580 C   0  0
   -1.4670   -1.3400   -1.0780 C   0  0
    1.1720   -3.1460    1.7580 C   0  0
   -1.6130   -0.5450   -2.2300 C   0  0
   -2.5820   -1.6090   -0.2660 C   0  0
    0.5140   -4.3910    1.7580 C   0  0
    2.5780   -3.0980    1.7580 C   0  0
   -2.8750   -0.0210   -2.5680 C   0  0
   -3.8420   -1.0860   -0.6030 C   0  0
    1.2620   -5.5820    1.7580 C   0  0
    3.3240   -4.2890    1.7580 C   0  0
   -3.0310    0.8220   -3.7930 C   0  0
   -3.9880   -0.2930   -1.7540 C   0  0
    2.6660   -5.5310    1.7580 C   0  0
   -2.0720    1.1290   -4.4630 O   0  0
   -4.2770    1.1940   -4.0680 O   0  0
   -4.3440    2.0900   -5.1660 C   0  0
    0.1330    3.3380    2.4790 H   0  0
    3.6890    4.3460    1.5120 H   0  0
    3.0820    5.1510    2.9550 H   0  0
    3.4100    6.0840    1.5000 H   0  0
    2.7250    3.5040   -0.0570 H   0  0
   -1.1620    0.0390    1.9220 H   0  0
   -1.2310    1.7950    2.0410 H   0  0
   -0.1660    0.8830    3.1060 H   0  0
    3.4920    1.5900   -1.4040 H   0  0
    2.4280   -0.6190   -1.1720 H   0  0
    0.5450   -1.7790   -1.5660 H   0  0
   -0.2290   -2.9590   -0.5100 H   0  0
   -0.6560   -2.1090    2.0060 H   0  0
    0.7710   -1.2150    2.5240 H   0  0
   -0.7560   -0.3400   -2.8530 H   0  0
   -2.4750   -2.2170    0.6210 H   0  0
   -0.5650   -4.4350    1.7580 H   0  0
    3.0900   -2.1460    1.7580 H   0  0
   -4.6970   -1.2930    0.0220 H   0  0
    0.7560   -6.5350    1.7580 H   0  0
    4.4020   -4.2500    1.7580 H   0  0
   -4.9610    0.1060   -2.0060 H   0  0
    3.2380   -6.4450    1.7580 H   0  0
   -3.9140    1.5960   -6.0370 H   0  0
   -5.3730    2.4340   -5.2660 H   0  0
   -3.7250    2.9570   -4.9360 H   0  0
  1  2  2  0
  1  3  2  0
  1  4  1  0
  1  5  1  0
  4  6  1  0
  6  7  2  0
  6  8  1  0
  7  9  1  0
  7 10  1  0
  8 11  2  0
  9 12  1  0
  9 13  2  0
 12 14  1  0
 12 15  1  0
 14 16  1  0
 15 17  1  0
 16 18  2  0
 16 19  1  0
 17 20  2  0
 17 21  1  0
 18 22  1  0
 19 23  2  0
 20 24  1  0
 21 25  2  0
 22 26  1  0
 22 27  2  0
 24 28  2  0
 26 29  2  0
 26 30  1  0
 30 31  1  0
 11 13  1  0
 23 27  1  0
 25 28  1  0
  4 32  1  0
  5 33  1  0
  5 34  1  0
  5 35  1  0
  8 36  1  0
 10 37  1  0
 10 38  1  0
 10 39  1  0
 11 40  1  0
 13 41  1  0
 14 42  1  0
 14 43  1  0
 15 44  1  0
 15 45  1  0
 18 46  1  0
 19 47  1  0
 20 48  1  0
 21 49  1  0
 23 50  1  0
 24 51  1  0
 25 52  1  0
 27 53  1  0
 28 54  1  0
 31 55  1  0
 31 56  1  0
 31 57  1  0
M  END
> <Name>
CHEMBL307754

> <IC50 nM>
25000

> <Molecule_ChEMBL_ID>
CHEMBL307754

> <Smiles>
COC(=O)c1cccc(CN(Cc2ccccc2)c2cccc(NS(C)(=O)=O)c2C)c1

$$$$
CHEMBL3126937
  SciTegic08162514323D

 61 64  0  0  1  0            999 V2000
    3.1820   -6.0820    3.4450 F   0  0
    2.3030   -5.9550    2.4550 C   0  0
    1.5700   -4.7640    2.3130 C   0  0
    2.1040   -7.0140    1.5530 C   0  0
    0.6390   -4.6270    1.2680 C   0  0
    1.1740   -6.8810    0.5080 C   0  0
    0.4410   -5.6900    0.3610 C   0  0
   -0.1270   -3.3600    1.1310 C   0  0
   -0.5390   -5.5670   -0.7500 C   0  0
    0.5140   -2.9850   -0.2050 C   0  0
    0.2170   -2.3710    2.2460 C   0  0
   -1.6290   -3.6190    1.0140 C   0  0
    0.3530   -1.5020   -0.5410 C   0  0  1  0  0  0
    1.2010   -0.7640    0.3110 O   0  0
    0.8480   -1.3220   -1.9770 C   0  0
   -1.0780   -1.0020   -0.3440 C   0  0
    0.4240   -0.1110   -2.4590 F   0  0
    0.3440   -2.3280   -2.7620 F   0  0
    2.2170   -1.3690   -1.9980 F   0  0
   -1.1430    0.5100   -0.3890 C   0  0
   -2.3180    1.2460   -0.2300 N   0  0
   -0.1070    1.4300   -0.5840 C   0  0
   -1.9470    2.5700   -0.3380 C   0  0
   -0.5800    2.7110   -0.5570 C   0  0
   -2.6880    3.7730   -0.2680 C   0  0
    0.0550    3.9340   -0.6990 N   0  0
   -2.1190    5.0270   -0.4020 N   0  0
   -0.7400    5.0800   -0.6190 C   0  0
   -0.1540    6.2810   -0.7520 N   0  0
   -0.8850    7.5350   -0.7290 C   0  0
    1.2750    6.4570   -0.9380 C   0  0
    0.1430    8.5700   -1.1860 C   0  0
    1.4900    7.9610   -0.7580 C   0  0
    1.7250   -3.9510    3.0080 H   0  0
    2.6640   -7.9320    1.6580 H   0  0
    1.0270   -7.6970   -0.1840 H   0  0
   -1.1150   -6.4880   -0.8320 H   0  0
   -1.1660   -4.6900   -0.5860 H   0  0
   -0.0060   -5.4220   -1.6910 H   0  0
    0.1190   -3.6060   -1.0100 H   0  0
    1.5640   -3.2740   -0.2250 H   0  0
    0.0270   -2.7930    3.2340 H   0  0
   -0.3790   -1.4630    2.1520 H   0  0
    1.2680   -2.0900    2.2010 H   0  0
   -2.1910   -3.1080    1.7950 H   0  0
   -1.8440   -4.6840    1.0920 H   0  0
   -2.0060   -3.2720    0.0510 H   0  0
    0.6330   -0.3090    0.9530 H   0  0
   -1.4810   -1.3560    0.6050 H   0  0
   -1.7380   -1.4160   -1.1040 H   0  0
   -3.2330    0.8910   -0.0740 H   0  0
    0.9300    1.1600   -0.7360 H   0  0
   -3.7520    3.7130   -0.1000 H   0  0
   -1.2190    7.7380    0.2790 H   0  0
   -1.7460    7.5080   -1.3810 H   0  0
    1.8460    5.8810   -0.2230 H   0  0
    1.5510    6.1430   -1.9340 H   0  0
    0.1130    8.6720   -2.2620 H   0  0
   -0.0290    9.5470   -0.7580 H   0  0
    1.6820    8.1890    0.2830 H   0  0
    2.3200    8.3360   -1.3360 H   0  0
  1  2  1  0
  2  3  2  0
  2  4  1  0
  3  5  1  0
  4  6  2  0
  5  7  2  0
  5  8  1  0
  7  9  1  0
  8 10  1  0
  8 11  1  0
  8 12  1  0
 10 13  1  0
 13 14  1  0
 13 15  1  0
 13 16  1  0
 15 17  1  0
 15 18  1  0
 15 19  1  0
 16 20  1  0
 20 21  1  0
 20 22  2  0
 21 23  1  0
 22 24  1  0
 23 25  1  0
 24 26  1  0
 25 27  2  0
 26 28  2  0
 28 29  1  0
 29 30  1  0
 29 31  1  0
 30 32  1  0
 31 33  1  0
  6  7  1  0
 23 24  2  0
 27 28  1  0
 32 33  1  0
  3 34  1  0
  4 35  1  0
  6 36  1  0
  9 37  1  0
  9 38  1  0
  9 39  1  0
 10 40  1  0
 10 41  1  0
 11 42  1  0
 11 43  1  0
 11 44  1  0
 12 45  1  0
 12 46  1  0
 12 47  1  0
 14 48  1  0
 16 49  1  0
 16 50  1  0
 21 51  1  0
 22 52  1  0
 25 53  1  0
 30 54  1  0
 30 55  1  0
 31 56  1  0
 31 57  1  0
 32 58  1  0
 32 59  1  0
 33 60  1  0
 33 61  1  0
M  END
> <Name>
CHEMBL3126937

> <IC50 nM>
18

> <Molecule_ChEMBL_ID>
CHEMBL3126937

> <Smiles>
Cc1ccc(F)cc1C(C)(C)CC(O)(Cc1cc2nc(N3CCCC3)ncc2[nH]1)C(F)(F)F

$$$$
CHEMBL3126934
  SciTegic08162514323D

 58 60  0  0  1  0            999 V2000
    1.3360   -3.5470    3.4340 F   0  0
    2.2170   -2.6000    3.1190 C   0  0
    2.4180   -2.2420    1.7760 C   0  0
    2.9430   -1.9510    4.1330 C   0  0
    3.3480   -1.2420    1.4420 C   0  0
    3.8710   -0.9510    3.8030 C   0  0
    4.0760   -0.5940    2.4590 C   0  0
    3.5490   -0.8770    0.0120 C   0  0
    5.0650    0.4690    2.1270 C   0  0
    2.9430    0.5170    0.1640 C   0  0
    2.7340   -1.7780   -0.9180 C   0  0
    5.0330   -0.8400   -0.3550 C   0  0
    1.4200    0.5150    0.0450 C   0  0  1  0  0  0
    0.9240   -0.6000    0.7500 O   0  0
    0.7790    1.7750    0.6310 C   0  0
    0.9410    0.4180   -1.4040 C   0  0
    0.7660    2.7640   -0.3180 F   0  0
    1.5060    2.1930    1.7150 F   0  0
   -0.5040    1.4960    1.0200 F   0  0
   -0.5700    0.3900   -1.4820 C   0  0
   -1.3240   -0.7780   -1.6110 N   0  0
   -1.4750    1.4590   -1.4430 C   0  0
   -2.6430   -0.3710   -1.6460 C   0  0
   -2.7600    1.0130   -1.5430 C   0  0
   -3.8560   -1.0860   -1.7640 C   0  0
   -3.9730    1.6830   -1.5510 N   0  0
   -5.1000   -0.4830   -1.7790 N   0  0
   -5.1310    0.9100   -1.6700 C   0  0
   -6.4340    1.5900   -1.6810 C   0  0
   -7.5530    0.6540   -2.1370 C   0  0
   -6.7310    2.2560   -0.3380 C   0  0
    1.8590   -2.7420    0.9960 H   0  0
    2.7910   -2.2210    5.1680 H   0  0
    4.4280   -0.4570    4.5880 H   0  0
    5.0350    0.8010    1.0880 H   0  0
    6.0720    0.1050    2.3320 H   0  0
    4.8890    1.3400    2.7600 H   0  0
    3.2560    0.9720    1.1040 H   0  0
    3.3850    1.2090   -0.5530 H   0  0
    1.6760   -1.7720   -0.6620 H   0  0
    3.0860   -2.8070   -0.8630 H   0  0
    2.8280   -1.4470   -1.9530 H   0  0
    5.6720   -0.9770    0.5180 H   0  0
    5.2930    0.1150   -0.8120 H   0  0
    5.2740   -1.6270   -1.0700 H   0  0
    0.1230   -0.8970    0.2890 H   0  0
    1.3200    1.2520   -1.9920 H   0  0
    1.3460   -0.4750   -1.8830 H   0  0
   -0.9800   -1.7090   -1.6680 H   0  0
   -1.1880    2.4980   -1.3480 H   0  0
   -3.8130   -2.1620   -1.8480 H   0  0
   -6.2230    2.3400   -2.4430 H   0  0
   -7.3380    0.2070   -3.1070 H   0  0
   -8.4960    1.1930   -2.2210 H   0  0
   -7.6930   -0.1560   -1.4220 H   0  0
   -5.9340    2.9470   -0.0640 H   0  0
   -7.6760    2.8010   -0.3790 H   0  0
   -6.8110    1.5100    0.4530 H   0  0
  1  2  1  0
  2  3  2  0
  2  4  1  0
  3  5  1  0
  4  6  2  0
  5  7  2  0
  5  8  1  0
  7  9  1  0
  8 10  1  0
  8 11  1  0
  8 12  1  0
 10 13  1  0
 13 14  1  0
 13 15  1  0
 13 16  1  0
 15 17  1  0
 15 18  1  0
 15 19  1  0
 16 20  1  0
 20 21  1  0
 20 22  2  0
 21 23  1  0
 22 24  1  0
 23 25  1  0
 24 26  1  0
 25 27  2  0
 26 28  2  0
 28 29  1  0
 29 30  1  0
 29 31  1  0
  6  7  1  0
 23 24  2  0
 27 28  1  0
  3 32  1  0
  4 33  1  0
  6 34  1  0
  9 35  1  0
  9 36  1  0
  9 37  1  0
 10 38  1  0
 10 39  1  0
 11 40  1  0
 11 41  1  0
 11 42  1  0
 12 43  1  0
 12 44  1  0
 12 45  1  0
 14 46  1  0
 16 47  1  0
 16 48  1  0
 21 49  1  0
 22 50  1  0
 25 51  1  0
 29 52  1  0
 30 53  1  0
 30 54  1  0
 30 55  1  0
 31 56  1  0
 31 57  1  0
 31 58  1  0
M  END
> <Name>
CHEMBL3126934

> <IC50 nM>
26

> <Molecule_ChEMBL_ID>
CHEMBL3126934

> <Smiles>
Cc1ccc(F)cc1C(C)(C)CC(O)(Cc1cc2nc(C(C)C)ncc2[nH]1)C(F)(F)F

$$$$
CHEMBL420742
  SciTegic08162514323D

 57 59  0  0  0  0            999 V2000
    1.3420   -2.3670    3.1680 S   0  0
    0.3010   -1.7320    3.9570 O   0  0
    1.0040   -3.7190    2.7540 O   0  0
    1.5450   -1.4820    1.8260 N   0  0
    2.8460   -2.4220    4.1330 C   0  0
    0.5040   -1.3220    0.9470 C   0  0
    0.6520   -0.5570   -0.2340 C   0  0
   -0.7300   -1.9340    1.2360 C   0  0
   -0.4450   -0.4140   -1.1170 C   0  0
    1.9610    0.0960   -0.5510 C   0  0
   -1.8140   -1.7870    0.3570 C   0  0
   -0.3400    0.3200   -2.2740 N   0  0
   -1.6740   -1.0310   -0.8140 C   0  0
   -0.1720    1.7790   -2.2310 C   0  0
   -0.3950   -0.3540   -3.5780 C   0  0
   -0.5940    2.3420   -0.9220 C   0  0
    0.3950   -1.6130   -3.5780 C   0  0
    0.3560    2.9340   -0.0680 C   0  0
   -1.9450    2.2810   -0.5330 C   0  0
   -0.2640   -2.8570   -3.5780 C   0  0
    1.8010   -1.5630   -3.5780 C   0  0
   -0.0450    3.4650    1.1700 C   0  0
   -2.3460    2.8130    0.7070 C   0  0
    0.4840   -4.0470   -3.5780 C   0  0
    2.5470   -2.7540   -3.5780 C   0  0
   -1.3960    3.4040    1.5590 C   0  0
    1.8890   -3.9960   -3.5780 C   0  0
   -1.8200    3.9690    2.8750 C   0  0
   -1.0180    4.4820    3.6190 O   0  0
   -3.1190    3.8610    3.1450 O   0  0
   -3.4530    4.4040    4.4120 C   0  0
    2.4300   -1.0550    1.6390 H   0  0
    2.7700   -3.0040    5.0510 H   0  0
    3.1390   -1.4060    4.4060 H   0  0
    3.6490   -2.8500    3.5330 H   0  0
   -0.8610   -2.5220    2.1350 H   0  0
    2.0000    0.5740   -1.5290 H   0  0
    2.7580   -0.6480   -0.5120 H   0  0
    2.1780    0.8550    0.2010 H   0  0
   -2.7600   -2.2580    0.5860 H   0  0
   -2.5230   -0.9320   -1.4770 H   0  0
    0.8750    2.0250   -2.4100 H   0  0
   -0.7620    2.2320   -3.0270 H   0  0
   -0.0080    0.3180   -4.3460 H   0  0
   -1.4340   -0.5760   -3.8240 H   0  0
    1.3950    2.9820   -0.3610 H   0  0
   -2.6780    1.8280   -1.1820 H   0  0
   -1.3420   -2.9020   -3.5780 H   0  0
    2.3130   -0.6110   -3.5780 H   0  0
    0.6910    3.9180    1.8180 H   0  0
   -3.3850    2.7620    0.9960 H   0  0
   -0.0210   -5.0020   -3.5780 H   0  0
    3.6250   -2.7150   -3.5780 H   0  0
    2.4610   -4.9120   -3.5780 H   0  0
   -4.5350    4.3460    4.5330 H   0  0
   -2.8550    3.8970    5.1700 H   0  0
   -3.1740    5.4570    4.4180 H   0  0
  1  2  2  0
  1  3  2  0
  1  4  1  0
  1  5  1  0
  4  6  1  0
  6  7  2  0
  6  8  1  0
  7  9  1  0
  7 10  1  0
  8 11  2  0
  9 12  1  0
  9 13  2  0
 12 14  1  0
 12 15  1  0
 14 16  1  0
 15 17  1  0
 16 18  2  0
 16 19  1  0
 17 20  2  0
 17 21  1  0
 18 22  1  0
 19 23  2  0
 20 24  1  0
 21 25  2  0
 22 26  2  0
 24 27  2  0
 26 28  1  0
 28 29  2  0
 28 30  1  0
 30 31  1  0
 11 13  1  0
 23 26  1  0
 25 27  1  0
  4 32  1  0
  5 33  1  0
  5 34  1  0
  5 35  1  0
  8 36  1  0
 10 37  1  0
 10 38  1  0
 10 39  1  0
 11 40  1  0
 13 41  1  0
 14 42  1  0
 14 43  1  0
 15 44  1  0
 15 45  1  0
 18 46  1  0
 19 47  1  0
 20 48  1  0
 21 49  1  0
 22 50  1  0
 23 51  1  0
 24 52  1  0
 25 53  1  0
 27 54  1  0
 31 55  1  0
 31 56  1  0
 31 57  1  0
M  END
> <Name>
CHEMBL420742

> <IC50 nM>
470

> <Molecule_ChEMBL_ID>
CHEMBL420742

> <Smiles>
COC(=O)c1ccc(CN(Cc2ccccc2)c2cccc(NS(C)(=O)=O)c2C)cc1

$$$$
CHEMBL302250
  SciTegic08162514323D

 54 56  0  0  0  0            999 V2000
   -0.9720   -3.0800    3.4840 S   0  0
   -2.0600   -2.3890    4.1520 O   0  0
   -1.4280   -4.0680    2.5210 O   0  0
   -0.1110   -1.9730    2.6760 N   0  0
    0.0330   -3.8990    4.7170 C   0  0
   -0.6460   -1.3610    1.5680 C   0  0
    0.1470   -0.5530    0.7210 C   0  0
   -2.0120   -1.5530    1.2810 C   0  0
   -0.4430    0.0610   -0.4120 C   0  0
    1.5980   -0.3440    1.0190 C   0  0
   -2.5900   -0.9430    0.1580 C   0  0
    0.2930    0.8520   -1.2580 N   0  0
   -1.8080   -0.1410   -0.6860 C   0  0
    0.8010    2.1600   -0.8180 C   0  0
    0.5840    0.3960   -2.6230 C   0  0
   -0.2480    2.9470   -0.1170 C   0  0
    1.3750   -0.8630   -2.6230 C   0  0
   -1.1720    3.7250   -0.8440 C   0  0
   -0.3120    2.9140    1.2870 C   0  0
    0.7170   -2.1070   -2.6230 C   0  0
    2.7800   -0.8150   -2.6230 C   0  0
   -2.1560    4.4610   -0.1620 C   0  0
   -1.1210    3.7730   -2.3300 C   0  0
   -1.2970    3.6500    1.9670 C   0  0
    1.4630   -3.2970   -2.6230 C   0  0
    3.5260   -2.0040   -2.6230 C   0  0
   -2.2190    4.4260    1.2420 C   0  0
    2.8670   -3.2460   -2.6230 C   0  0
    0.8090   -1.7320    2.9820 H   0  0
   -0.4920   -4.6560    5.2950 H   0  0
    0.4240   -3.1580    5.4160 H   0  0
    0.8830   -4.3790    4.2320 H   0  0
   -2.6330   -2.1680    1.9180 H   0  0
    2.1800    0.0230    0.1760 H   0  0
    2.0390   -1.2870    1.3440 H   0  0
    1.7010    0.3710    1.8340 H   0  0
   -3.6370   -1.0940   -0.0590 H   0  0
   -2.2750    0.3200   -1.5470 H   0  0
    1.6510    2.0100   -0.1520 H   0  0
    1.1540    2.7170   -1.6880 H   0  0
    1.1410    1.1720   -3.1510 H   0  0
   -0.3530    0.2360   -3.1560 H   0  0
    0.3930    2.3200    1.8510 H   0  0
   -0.3630   -2.1520   -2.6230 H   0  0
    3.2910    0.1390   -2.6230 H   0  0
   -2.8690    5.0590   -0.7110 H   0  0
   -2.0620    4.1660   -2.7130 H   0  0
   -0.2600    4.3630   -2.6450 H   0  0
   -0.9940    2.7660   -2.7230 H   0  0
   -1.3460    3.6230    3.0450 H   0  0
    0.9570   -4.2520   -2.6230 H   0  0
    4.6060   -1.9650   -2.6230 H   0  0
   -2.9760    4.9920    1.7640 H   0  0
    3.4420   -4.1620   -2.6230 H   0  0
  1  2  2  0
  1  3  2  0
  1  4  1  0
  1  5  1  0
  4  6  1  0
  6  7  2  0
  6  8  1  0
  7  9  1  0
  7 10  1  0
  8 11  2  0
  9 12  1  0
  9 13  2  0
 12 14  1  0
 12 15  1  0
 14 16  1  0
 15 17  1  0
 16 18  2  0
 16 19  1  0
 17 20  2  0
 17 21  1  0
 18 22  1  0
 18 23  1  0
 19 24  2  0
 20 25  1  0
 21 26  2  0
 22 27  2  0
 25 28  2  0
 11 13  1  0
 24 27  1  0
 26 28  1  0
  4 29  1  0
  5 30  1  0
  5 31  1  0
  5 32  1  0
  8 33  1  0
 10 34  1  0
 10 35  1  0
 10 36  1  0
 11 37  1  0
 13 38  1  0
 14 39  1  0
 14 40  1  0
 15 41  1  0
 15 42  1  0
 19 43  1  0
 20 44  1  0
 21 45  1  0
 22 46  1  0
 23 47  1  0
 23 48  1  0
 23 49  1  0
 24 50  1  0
 25 51  1  0
 26 52  1  0
 27 53  1  0
 28 54  1  0
M  END
> <Name>
CHEMBL302250

> <IC50 nM>
48

> <Molecule_ChEMBL_ID>
CHEMBL302250

> <Smiles>
Cc1ccccc1CN(Cc1ccccc1)c1cccc(NS(C)(=O)=O)c1C

$$$$
CHEMBL1086260
  SciTegic08162514323D

 62 66  0  0  0  0            999 V2000
   -3.9630   -1.5290    0.0820 S   0  0
   -4.8520   -1.0900   -0.9790 O   0  0
   -4.5220   -1.3440    1.4100 O   0  0
   -3.7090   -3.1170   -0.1210 N   0  0
   -2.5000   -0.6210   -0.0230 C   0  0
   -3.4300   -3.9100    0.9610 C   0  0
   -3.7790   -3.7070   -1.4650 C   0  0
   -1.9690   -0.0160    1.1270 C   0  0
   -1.8460   -0.4900   -1.2580 C   0  0
   -2.4860   -3.4880    1.9200 C   0  0
   -4.0820   -5.1480    1.1170 C   0  0
   -2.8560   -4.9180   -1.5800 C   0  0
   -5.2250   -4.0270   -1.8480 C   0  0
   -0.7760    0.7270    1.0470 C   0  0
   -0.6520    0.2500   -1.3440 C   0  0
   -2.2010   -4.3030    3.0290 C   0  0
   -3.7930   -5.9590    2.2290 C   0  0
   -0.1150    0.8610   -0.1930 C   0  0
   -0.2360    1.3580    2.2830 C   0  0
   -2.8540   -5.5370    3.1840 C   0  0
    1.1230    1.6230   -0.3050 C   0  0
    1.0880    1.0290    2.4240 F   0  0
   -0.9380    0.9040    3.3710 F   0  0
   -0.3610    2.7210    2.1930 F   0  0
    2.3770    0.9510   -0.3360 C   0  0
    1.0820    3.0450   -0.3830 C   0  0
    3.5740    1.7070   -0.4430 C   0  0
    2.2790    3.7930   -0.4900 C   0  0
    3.5020    3.0840   -0.5180 C   0  0
    4.8260    1.1170   -0.4790 C   0  0
    4.8090    3.4380   -0.6070 N   0  0
    5.5590    2.2830   -0.5840 N   0  0
    5.3070    4.6990   -0.7050 C   0  0
    6.3550    4.9770   -1.6020 C   0  0
    4.7750    5.7330    0.0920 C   0  0
    6.8690    6.2810   -1.7030 C   0  0
    5.2910    7.0350   -0.0100 C   0  0
    6.3380    7.3110   -0.9060 C   0  0
    6.8260    8.5450   -1.0020 F   0  0
   -3.4010   -2.8750   -2.0590 H   0  0
   -2.4810   -0.1230    2.0720 H   0  0
   -2.2540   -0.9570   -2.1430 H   0  0
   -1.9750   -2.5410    1.8180 H   0  0
   -4.8090   -5.4880    0.3930 H   0  0
   -1.8990   -4.7480   -1.0880 H   0  0
   -2.6540   -5.1520   -2.6270 H   0  0
   -3.3130   -5.7970   -1.1250 H   0  0
   -5.8890   -3.2070   -1.5720 H   0  0
   -5.3090   -4.2110   -2.9180 H   0  0
   -5.5710   -4.9220   -1.3300 H   0  0
   -0.1600    0.3420   -2.3010 H   0  0
   -1.4790   -3.9790    3.7640 H   0  0
   -4.2950   -6.9080    2.3480 H   0  0
   -2.6330   -6.1620    4.0370 H   0  0
    2.4180   -0.1270   -0.2770 H   0  0
    0.1370    3.5700   -0.3630 H   0  0
    2.2560    4.8710   -0.5490 H   0  0
    5.1780    0.0940   -0.4410 H   0  0
    6.7770    4.1990   -2.2230 H   0  0
    3.9690    5.5390    0.7870 H   0  0
    7.6740    6.4880   -2.3930 H   0  0
    4.8790    7.8240    0.6040 H   0  0
  1  2  2  0
  1  3  2  0
  1  4  1  0
  1  5  1  0
  4  6  1  0
  4  7  1  0
  5  8  2  0
  5  9  1  0
  6 10  2  0
  6 11  1  0
  7 12  1  0
  7 13  1  0
  8 14  1  0
  9 15  2  0
 10 16  1  0
 11 17  2  0
 14 18  2  0
 14 19  1  0
 16 20  2  0
 18 21  1  0
 19 22  1  0
 19 23  1  0
 19 24  1  0
 21 25  2  0
 21 26  1  0
 25 27  1  0
 26 28  2  0
 27 29  2  0
 27 30  1  0
 29 31  1  0
 30 32  2  0
 31 33  1  0
 33 34  2  0
 33 35  1  0
 34 36  1  0
 35 37  2  0
 36 38  2  0
 38 39  1  0
 15 18  1  0
 17 20  1  0
 28 29  1  0
 31 32  1  0
 37 38  1  0
  7 40  1  0
  8 41  1  0
  9 42  1  0
 10 43  1  0
 11 44  1  0
 12 45  1  0
 12 46  1  0
 12 47  1  0
 13 48  1  0
 13 49  1  0
 13 50  1  0
 15 51  1  0
 16 52  1  0
 17 53  1  0
 20 54  1  0
 25 55  1  0
 26 56  1  0
 28 57  1  0
 30 58  1  0
 34 59  1  0
 35 60  1  0
 36 61  1  0
 37 62  1  0
M  END
> <Name>
CHEMBL1086260

> <IC50 nM>
50.12

> <Molecule_ChEMBL_ID>
CHEMBL1086260

> <Smiles>
CC(C)N(c1ccccc1)S(=O)(=O)c1ccc(-c2ccc3c(cnn3-c3ccc(F)cc3)c2)c(C(F)(F)F)c1

$$$$
CHEMBL51093
  SciTegic08162514323D

 43 44  0  0  1  0            999 V2000
   -2.2790    5.0470   -2.4750 Br  0  0
   -1.3300    3.5060   -1.9430 C   0  0
   -1.8920    2.2190   -2.0940 C   0  0
   -0.0430    3.6450   -1.3890 C   0  0
   -3.0960    2.0570   -2.6090 O   0  0
   -1.1600    1.0880   -1.6880 C   0  0
    0.6840    2.5140   -0.9820 C   0  0
   -3.5490    0.7310   -2.8400 C   0  0
    0.1230    1.2330   -1.1350 C   0  0
    1.8870    2.6600   -0.4630 O   0  0
    0.8790    0.0240   -0.7110 C   0  0
    0.8380   -0.1640    0.8130 C   0  0  1  0  0  0
   -0.5970   -0.3160    1.2770 C   0  0
    1.7030   -1.3590    1.2850 C   0  0
   -1.3650    0.7580    1.5350 C   0  0
   -1.1420   -1.7210    1.4430 C   0  0
    1.1310   -2.7210    0.7600 C   0  0  1  0  0  0
    3.1720   -1.1230    0.8960 C   0  0
    1.6860   -1.3850    2.8200 C   0  0
   -0.4020   -2.7030    0.5250 C   0  0
    1.9790   -3.4020   -0.8630 Br  0  0
    0.4010    4.6230   -1.2680 H   0  0
   -1.5920    0.1060   -1.8050 H   0  0
   -4.5580    0.7810   -3.2480 H   0  0
   -2.8060    0.2170   -3.4510 H   0  0
   -3.6030    0.2170   -1.8790 H   0  0
    2.3850    1.8770   -0.1910 H   0  0
    1.9080    0.0980   -1.0610 H   0  0
    0.4790   -0.8530   -1.2170 H   0  0
    1.2460    0.7460    1.2580 H   0  0
   -1.0800    1.7950    1.4490 H   0  0
   -2.3710    0.5390    1.8630 H   0  0
   -2.2090   -1.7360    1.2090 H   0  0
   -1.0430   -2.0270    2.4840 H   0  0
    1.3560   -3.4940    1.4960 H   0  0
    3.3010   -1.0620   -0.1840 H   0  0
    3.8030   -1.9320    1.2620 H   0  0
    3.5390   -0.1910    1.3280 H   0  0
    0.6900   -1.5900    3.2130 H   0  0
    2.0140   -0.4280    3.2270 H   0  0
    2.3580   -2.1560    3.2010 H   0  0
   -0.8100   -3.7070    0.6460 H   0  0
   -0.6350   -2.4080   -0.4980 H   0  0
  1  2  1  0
  2  3  2  0
  2  4  1  0
  3  5  1  0
  3  6  1  0
  4  7  2  0
  5  8  1  0
  6  9  2  0
  7 10  1  0
  9 11  1  0
 12 11  1  0
 12 13  1  0
 12 14  1  0
 13 15  2  0
 13 16  1  0
 14 17  1  0
 14 18  1  0
 14 19  1  0
 16 20  1  0
 17 21  1  0
  7  9  1  0
 17 20  1  0
  4 22  1  0
  6 23  1  0
  8 24  1  0
  8 25  1  0
  8 26  1  0
 10 27  1  0
 11 28  1  0
 11 29  1  0
 12 30  1  0
 15 31  1  0
 15 32  1  0
 16 33  1  0
 16 34  1  0
 17 35  1  0
 18 36  1  0
 18 37  1  0
 18 38  1  0
 19 39  1  0
 19 40  1  0
 19 41  1  0
 20 42  1  0
 20 43  1  0
M  END
> <Name>
CHEMBL51093

> <IC50 nM>
10000

> <Molecule_ChEMBL_ID>
CHEMBL51093

> <Smiles>
C=C1CC[C@@H](Br)C(C)(C)[C@H]1Cc1cc(OC)c(Br)cc1O

$$$$
CHEMBL375348
  SciTegic08162514323D

 57 58  0  0  1  0            999 V2000
   -5.0960    0.1520    0.1950 F   0  0
   -4.1390    1.0470    0.4330 C   0  0
   -2.9300    0.6430    1.0250 C   0  0
   -4.3360    2.3950    0.0920 C   0  0
   -1.9180    1.5860    1.2750 C   0  0
   -3.3260    3.3380    0.3440 C   0  0
   -2.1150    2.9400    0.9350 C   0  0
   -0.6430    1.1490    1.9020 C   0  0
   -1.1740    3.8320    1.1660 O   0  0
    0.1430    1.1680    0.5900 C   0  0
   -0.7600   -0.2560    2.4960 C   0  0
   -0.1290    2.1740    2.9120 C   0  0
   -1.3550    5.1410    0.6460 C   0  0
    1.5390    0.5650    0.7280 C   0  0  3  0  0  0
    1.9530    0.7110    2.0680 O   0  0
    2.4650    1.4040   -0.1520 C   0  0
    1.5780   -0.9220    0.3750 C   0  0
    2.5490    2.6760    0.3530 F   0  0
    1.9650    1.4510   -1.4280 F   0  0
    3.7150    0.8380   -0.1740 F   0  0
    1.2360   -1.1230   -1.0310 N   0  0
    2.2750   -1.8830   -1.7310 C   0  0
   -0.1040   -1.7210   -1.2150 C   0  0
    2.3130   -3.3710   -1.2870 C   0  0  1  0  0  0
   -0.0800   -3.2340   -1.5530 C   0  0  2  0  0  0
    1.0250   -3.8530   -0.9080 O   0  0
    2.8730   -4.2890   -2.3790 C   0  0
   -0.0270   -3.5270   -3.0590 C   0  0
   -2.7790   -0.3960    1.2870 H   0  0
   -5.2640    2.7110   -0.3630 H   0  0
   -3.4810    4.3730    0.0800 H   0  0
    0.1970    2.1820    0.1910 H   0  0
   -0.4180    0.6680   -0.2010 H   0  0
   -1.5820   -0.3280    3.2090 H   0  0
    0.1560   -0.5330    3.0180 H   0  0
   -0.9340   -0.9920    1.7130 H   0  0
   -0.9430    2.7310    3.3750 H   0  0
    0.5330    2.8930    2.4300 H   0  0
    0.4340    1.6860    3.7070 H   0  0
   -0.4840    5.7400    0.9160 H   0  0
   -1.5720    5.0590   -0.4180 H   0  0
   -2.2250    5.5840    1.1310 H   0  0
    2.4450   -0.0920    2.3030 H   0  0
    0.8850   -1.4840    1.0000 H   0  0
    2.5640   -1.3400    0.5720 H   0  0
    2.0840   -1.8160   -2.8030 H   0  0
    3.2480   -1.4140   -1.5760 H   0  0
   -0.7010   -1.5590   -0.3150 H   0  0
   -0.6230   -1.1800   -2.0040 H   0  0
    2.9390   -3.4730   -0.4000 H   0  0
   -0.9800   -3.7010   -1.1520 H   0  0
    2.6600   -5.3380   -2.1760 H   0  0
    3.9530   -4.1780   -2.4590 H   0  0
    2.4390   -4.0430   -3.3480 H   0  0
    0.3090   -4.5430   -3.2640 H   0  0
    0.6540   -2.8420   -3.5610 H   0  0
   -1.0140   -3.4060   -3.5100 H   0  0
  1  2  1  0
  2  3  2  0
  2  4  1  0
  3  5  1  0
  4  6  2  0
  5  7  2  0
  5  8  1  0
  7  9  1  0
  8 10  1  0
  8 11  1  0
  8 12  1  0
  9 13  1  0
 10 14  1  0
 14 15  1  0
 14 16  1  0
 14 17  1  0
 16 18  1  0
 16 19  1  0
 16 20  1  0
 17 21  1  0
 21 22  1  0
 21 23  1  0
 22 24  1  0
 23 25  1  0
 24 26  1  0
 24 27  1  0
 25 28  1  0
  6  7  1  0
 25 26  1  0
  3 29  1  0
  4 30  1  0
  6 31  1  0
 10 32  1  0
 10 33  1  0
 11 34  1  0
 11 35  1  0
 11 36  1  0
 12 37  1  0
 12 38  1  0
 12 39  1  0
 13 40  1  0
 13 41  1  0
 13 42  1  0
 15 43  1  0
 17 44  1  0
 17 45  1  0
 22 46  1  0
 22 47  1  0
 23 48  1  0
 23 49  1  0
 24 50  1  0
 25 51  1  0
 27 52  1  0
 27 53  1  0
 27 54  1  0
 28 55  1  0
 28 56  1  0
 28 57  1  0
M  END
> <Name>
CHEMBL375348

> <IC50 nM>
38

> <Molecule_ChEMBL_ID>
CHEMBL375348

> <Smiles>
COc1ccc(F)cc1C(C)(C)CC(O)(CN1C[C@@H](C)O[C@@H](C)C1)C(F)(F)F

$$$$
CHEMBL220023
  SciTegic08162514323D

 51 52  0  0  1  0            999 V2000
    2.9510    2.0590    2.0100 F   0  0
    1.6310    1.8850    1.9670 C   0  0
    1.0900    0.5900    2.0470 C   0  0
    0.7790    2.9960    1.8420 C   0  0
   -0.3050    0.4060    2.0020 C   0  0
   -0.6110    2.8130    1.7970 C   0  0
   -1.1600    1.5200    1.8770 C   0  0
   -0.8670   -0.9690    2.0860 C   0  0
   -2.4670    1.3570    1.8320 O   0  0
   -1.4840   -0.9240    0.6870 C   0  0
   -1.9180   -1.0780    3.1910 C   0  0
    0.2340   -2.0210    2.2110 C   0  0
   -3.2850    2.5100    1.9790 C   0  0
   -0.4860   -1.2930   -0.4100 C   0  0  1  0  0  0
   -0.0080   -2.5940   -0.1520 O   0  0
   -1.2720   -1.3220   -1.7210 C   0  0
    0.7110   -0.3440   -0.4610 C   0  0
   -2.4160   -2.0590   -1.5510 F   0  0
   -0.5020   -1.8950   -2.7010 F   0  0
   -1.6020   -0.0430   -2.0860 F   0  0
    1.3340   -0.3530   -1.7930 N   0  0
    1.3550    0.6620   -2.7030 C   0  0
    2.0060   -1.3750   -2.3670 C   0  0
    2.0230    0.3030   -3.8320 N   0  0
    0.7210    2.0200   -2.4920 C   0  0
    2.4300   -0.9670   -3.6290 C   0  0
    3.2170   -1.7540   -4.6540 C   0  0
    1.7460   -0.2640    2.1430 H   0  0
    1.1910    3.9920    1.7810 H   0  0
   -1.2640    3.6680    1.7010 H   0  0
   -1.9280    0.0530    0.4940 H   0  0
   -2.3670   -1.5610    0.6370 H   0  0
   -1.4750   -0.9900    4.1840 H   0  0
   -2.4320   -2.0390    3.1410 H   0  0
   -2.6660   -0.2930    3.0920 H   0  0
    0.6740   -2.0310    3.2090 H   0  0
    1.0350   -1.8280    1.4980 H   0  0
   -0.1600   -3.0180    2.0100 H   0  0
   -4.3260    2.1900    1.9920 H   0  0
   -2.9410    3.0660    2.8500 H   0  0
   -3.1430    3.1430    1.1020 H   0  0
    0.0390   -3.0550   -1.0040 H   0  0
    1.4390   -0.6680    0.2830 H   0  0
    0.4080    0.6720   -0.2090 H   0  0
    2.1640   -2.3360   -1.8950 H   0  0
    0.9280    2.7400   -3.2850 H   0  0
    1.0760    2.4450   -1.5550 H   0  0
   -0.3610    1.9080   -2.4180 H   0  0
    3.4670   -1.1930   -5.5570 H   0  0
    2.6460   -2.6330   -4.9570 H   0  0
    4.1500   -2.1000   -4.2090 H   0  0
  1  2  1  0
  2  3  2  0
  2  4  1  0
  3  5  1  0
  4  6  2  0
  5  7  2  0
  5  8  1  0
  7  9  1  0
  8 10  1  0
  8 11  1  0
  8 12  1  0
  9 13  1  0
 10 14  1  0
 14 15  1  0
 14 16  1  0
 14 17  1  0
 16 18  1  0
 16 19  1  0
 16 20  1  0
 17 21  1  0
 21 22  1  0
 21 23  1  0
 22 24  2  0
 22 25  1  0
 23 26  2  0
 26 27  1  0
  6  7  1  0
 24 26  1  0
  3 28  1  0
  4 29  1  0
  6 30  1  0
 10 31  1  0
 10 32  1  0
 11 33  1  0
 11 34  1  0
 11 35  1  0
 12 36  1  0
 12 37  1  0
 12 38  1  0
 13 39  1  0
 13 40  1  0
 13 41  1  0
 15 42  1  0
 17 43  1  0
 17 44  1  0
 23 45  1  0
 25 46  1  0
 25 47  1  0
 25 48  1  0
 27 49  1  0
 27 50  1  0
 27 51  1  0
M  END
> <Name>
CHEMBL220023

> <IC50 nM>
650

> <Molecule_ChEMBL_ID>
CHEMBL220023

> <Smiles>
COc1ccc(F)cc1C(C)(C)CC(O)(Cn1cc(C)nc1C)C(F)(F)F

$$$$
CHEMBL1254174
  SciTegic08162514323D

 59 62  0  0  1  0            999 V2000
    2.3150    2.1490   -0.7270 F   0  0
    2.2380    0.8560   -1.1780 C   0  0
    1.6310    0.8360   -2.4060 F   0  0
    3.5020    0.3340   -1.2830 F   0  0
    1.4220    0.0200   -0.1910 C   0  0  1  0  0  0
    1.5180   -1.3320   -0.5760 O   0  0
    1.9260    0.1450    1.2460 C   0  0
   -0.0330    0.4610   -0.3480 C   0  0
    3.4340    0.0330    1.3110 C   0  0
   -0.9530   -0.1580    0.7030 C   0  0
    4.2950    1.1580    1.3870 N   0  0
    4.2230   -1.1350    1.3090 C   0  0
   -2.2050    0.2320    0.0000 C   0  0
   -0.8110   -1.6780    0.7930 C   0  0
   -0.8380    0.5250    2.0670 C   0  0
    5.5860    0.6640    1.4320 C   0  0
    5.5000   -0.7050    1.3830 C   0  0
   -2.6660    1.5630    0.0570 C   0  0
   -2.9260   -0.7340   -0.7250 C   0  0
    6.8610    1.2580    1.5120 C   0  0
    6.6740   -1.5120    1.4080 C   0  0
   -1.9960    2.4750    0.7320 O   0  0
   -3.8500    1.9160   -0.6130 C   0  0
   -4.1110   -0.3750   -1.3940 C   0  0
    8.0370    0.5370    1.5430 N   0  0
    7.9380   -0.8500    1.4920 C   0  0
   -2.4430    3.8200    0.6560 C   0  0
   -4.5720    0.9530   -1.3380 C   0  0
   -4.8570   -1.3750   -2.1430 C   0  0
   -5.3910   -1.0740   -3.4160 C   0  0
   -5.0640   -2.6680   -1.6130 C   0  0
   -6.0920   -2.0180   -4.1150 N   0  0
   -5.7660   -3.6040   -2.3200 N   0  0
   -6.2560   -3.2480   -3.5450 C   0  0
    2.1250   -1.7660    0.0450 H   0  0
    1.4770   -0.6190    1.8790 H   0  0
    1.6130    1.0940    1.6820 H   0  0
   -0.1110    1.5470   -0.3360 H   0  0
   -0.3960    0.2440   -1.3530 H   0  0
    4.0240    2.1130    1.4040 H   0  0
    3.8730   -2.1580    1.2600 H   0  0
   -1.6760   -2.1430    1.2640 H   0  0
    0.0700   -1.9490    1.3750 H   0  0
   -0.6970   -2.1130   -0.2010 H   0  0
   -1.8120    0.6840    2.5250 H   0  0
   -0.3530    1.4960    1.9690 H   0  0
   -0.2400   -0.0780    2.7500 H   0  0
   -2.5630   -1.7520   -0.7600 H   0  0
    6.9240    2.3360    1.5510 H   0  0
    6.6190   -2.5900    1.3690 H   0  0
   -4.2070    2.9360   -0.5720 H   0  0
    8.8400   -1.4410    1.5160 H   0  0
   -2.4280    4.1270   -0.3890 H   0  0
   -3.4040    3.8910    1.1660 H   0  0
   -1.7320    4.4470    1.1970 H   0  0
   -5.4810    1.2460   -1.8460 H   0  0
   -5.2540   -0.0960   -3.8540 H   0  0
   -4.6700   -2.9360   -0.6410 H   0  0
   -6.8090   -3.9900   -4.1020 H   0  0
  1  2  1  0
  2  3  1  0
  2  4  1  0
  2  5  1  0
  5  6  1  0
  5  7  1  0
  5  8  1  0
  7  9  1  0
  8 10  1  0
  9 11  1  0
  9 12  2  0
 10 13  1  0
 10 14  1  0
 10 15  1  0
 11 16  1  0
 12 17  1  0
 13 18  2  0
 13 19  1  0
 16 20  1  0
 17 21  1  0
 18 22  1  0
 18 23  1  0
 19 24  2  0
 20 25  2  0
 21 26  2  0
 22 27  1  0
 23 28  2  0
 24 29  1  0
 29 30  2  0
 29 31  1  0
 30 32  1  0
 31 33  2  0
 32 34  2  0
 16 17  2  0
 24 28  1  0
 25 26  1  0
 33 34  1  0
  6 35  1  0
  7 36  1  0
  7 37  1  0
  8 38  1  0
  8 39  1  0
 11 40  1  0
 12 41  1  0
 14 42  1  0
 14 43  1  0
 14 44  1  0
 15 45  1  0
 15 46  1  0
 15 47  1  0
 19 48  1  0
 20 49  1  0
 21 50  1  0
 23 51  1  0
 26 52  1  0
 27 53  1  0
 27 54  1  0
 27 55  1  0
 28 56  1  0
 30 57  1  0
 31 58  1  0
 34 59  1  0
M  END
> <Name>
CHEMBL1254174

> <IC50 nM>
50

> <Molecule_ChEMBL_ID>
CHEMBL1254174

> <Smiles>
COc1ccc(-c2cncnc2)cc1C(C)(C)CC(O)(Cc1cc2ccncc2[nH]1)C(F)(F)F

$$$$
CHEMBL377844
  SciTegic08162514323D

 53 56  0  0  1  0            999 V2000
    6.2250   -4.2010    0.1370 F   0  0
    5.0920   -3.5140    0.0040 C   0  0
    3.8510   -4.1880    0.0000 C   0  0
    5.1310   -2.1080   -0.1330 C   0  0
    2.6390   -3.4650   -0.1430 C   0  0
    3.9320   -1.3790   -0.2810 C   0  0
    2.6780   -2.0450   -0.2970 C   0  0
    1.3510   -4.2150   -0.1190 C   0  0
    1.4350   -1.2420   -0.4830 C   0  0  3  0  0  0
    0.1480   -3.4080   -0.6310 C   0  0
    0.1620   -1.9920   -0.0530 C   0  0
    1.3280   -0.7790   -1.9420 C   0  0
    0.9160    0.6870   -2.0670 C   0  0  3  0  0  0
    1.8810    1.4740   -1.4080 O   0  0
   -0.4420    0.9550   -1.4710 C   0  0
    0.8280    1.1540   -3.5200 C   0  0
   -1.4420    0.8810   -2.1450 O   0  0
   -0.5240    1.2850   -0.1490 N   0  0
    0.4000    2.4550   -3.5570 F   0  0
   -0.0590    0.3610   -4.2010 F   0  0
    2.0640    1.0620   -4.1040 F   0  0
   -1.7190    1.5290    0.4080 C   0  0
   -1.8750    2.6010    1.3260 C   0  0
   -2.8380    0.7170    0.0860 C   0  0
   -3.1430    2.8530    1.9140 C   0  0
   -4.1040    0.9690    0.6700 C   0  0
   -4.2460    2.0390    1.5840 C   0  0
   -3.3480    3.9690    2.8830 C   0  0
   -5.5490    2.3550    2.2320 C   0  0
   -4.5140    4.1720    3.4000 N   0  0
   -2.2130    4.8770    3.2810 C   0  0
   -6.5490    1.7130    2.0080 O   0  0
   -5.7030    3.3730    3.1090 O   0  0
    3.8280   -5.2620    0.1110 H   0  0
    6.0780   -1.5880   -0.1270 H   0  0
    3.9750   -0.3050   -0.3830 H   0  0
    1.1620   -4.5180    0.9120 H   0  0
    1.4410   -5.1330   -0.6990 H   0  0
    1.5060   -0.3480    0.1390 H   0  0
    0.1720   -3.3600   -1.7210 H   0  0
   -0.7790   -3.9180   -0.3670 H   0  0
   -0.7270   -1.4450   -0.3710 H   0  0
    0.1090   -2.0470    1.0350 H   0  0
    2.2620   -0.9650   -2.4730 H   0  0
    0.6460   -1.4220   -2.4980 H   0  0
    2.7440    1.2420   -1.7810 H   0  0
    0.3050    1.3460    0.4080 H   0  0
   -1.0310    3.2260    1.5800 H   0  0
   -2.7400   -0.1060   -0.6100 H   0  0
   -4.9460    0.3420    0.4140 H   0  0
   -2.5740    5.6410    3.9730 H   0  0
   -1.4040    4.2910    3.7190 H   0  0
   -1.8190    5.3850    2.4020 H   0  0
  1  2  1  0
  2  3  2  0
  2  4  1  0
  3  5  1  0
  4  6  2  0
  5  7  2  0
  5  8  1  0
  7  9  1  0
  8 10  1  0
  9 11  1  0
  9 12  1  0
 12 13  1  0
 13 14  1  0
 13 15  1  0
 13 16  1  0
 15 17  2  0
 15 18  1  0
 16 19  1  0
 16 20  1  0
 16 21  1  0
 18 22  1  0
 22 23  2  0
 22 24  1  0
 23 25  1  0
 24 26  2  0
 25 27  2  0
 25 28  1  0
 27 29  1  0
 28 30  2  0
 28 31  1  0
 29 32  2  0
 29 33  1  0
  6  7  1  0
 10 11  1  0
 26 27  1  0
 30 33  1  0
  3 34  1  0
  4 35  1  0
  6 36  1  0
  8 37  1  0
  8 38  1  0
  9 39  1  0
 10 40  1  0
 10 41  1  0
 11 42  1  0
 11 43  1  0
 12 44  1  0
 12 45  1  0
 14 46  1  0
 18 47  1  0
 23 48  1  0
 24 49  1  0
 26 50  1  0
 31 51  1  0
 31 52  1  0
 31 53  1  0
M  END
> <Name>
CHEMBL377844

> <IC50 nM>
12.59

> <Molecule_ChEMBL_ID>
CHEMBL377844

> <Smiles>
Cc1noc(=O)c2ccc(NC(=O)C(O)(CC3CCCc4cc(F)ccc43)C(F)(F)F)cc12

$$$$
CHEMBL203431
  SciTegic08162514323D

 54 56  0  0  0  0            999 V2000
   -1.0390   -2.4940   -1.0530 S   0  0
   -1.9430   -1.9940    0.4400 C   0  0
   -2.3910   -2.3530   -2.2540 C   0  0
   -2.2500   -0.5170    0.3690 C   0  0
   -1.9120   -2.8140   -3.6050 C   0  0
   -1.1640    0.5060    0.4200 C   0  0
   -3.5350   -0.1230    0.2600 C   0  0
   -2.8260   -3.1000   -4.5470 C   0  0
   -1.4960    1.8910    0.3500 C   0  0
    0.1910    0.1060    0.5390 C   0  0
   -3.9360    1.3400    0.1820 C   0  0
   -2.7890    2.2930    0.2340 N   0  0
   -0.4550    2.8540    0.3990 C   0  0
    1.2250    1.0740    0.5880 C   0  0
   -4.6900    1.5570   -1.1330 C   0  0
   -4.8690    1.6390    1.3580 C   0  0
    0.8930    2.4490    0.5180 C   0  0
    2.6150    0.6600    0.7090 C   0  0
    3.0040   -0.2670    1.6990 C   0  0
    3.5760    1.1920   -0.1720 C   0  0
    2.1230   -0.7790    2.5370 O   0  0
    4.3540   -0.6520    1.7990 C   0  0
    4.9240    0.8050   -0.0680 C   0  0
    2.5610   -1.7950    3.4280 C   0  0
    5.3090   -0.1190    0.9180 C   0  0
    5.8220    1.3030   -0.8930 O   0  0
    7.1700    0.8790   -0.7480 C   0  0
   -2.8710   -2.5600    0.5120 H   0  0
   -1.3360   -2.2030    1.3200 H   0  0
   -2.7190   -1.3160   -2.3120 H   0  0
   -3.2330   -2.9690   -1.9300 H   0  0
   -0.8830   -2.9430   -3.9060 H   0  0
   -4.3110   -0.8750    0.2230 H   0  0
   -2.6370   -3.4410   -5.5530 H   0  0
   -3.8560   -2.9670   -4.2480 H   0  0
    0.4430   -0.9430    0.5920 H   0  0
   -3.0040    3.2700    0.1840 H   0  0
   -0.6780    3.9120    0.3480 H   0  0
   -4.0590    1.3560   -2.0000 H   0  0
   -5.0410    2.5860   -1.2090 H   0  0
   -5.5590    0.9020   -1.1930 H   0  0
   -4.3730    1.4940    2.3180 H   0  0
   -5.7420    0.9840    1.3340 H   0  0
   -5.2250    2.6680    1.3160 H   0  0
    1.6640    3.2050    0.5550 H   0  0
    3.2910    1.9020   -0.9340 H   0  0
    4.6560   -1.3610    2.5550 H   0  0
    1.8010   -2.2520    4.0610 H   0  0
    3.3260   -1.3730    4.0760 H   0  0
    3.0230   -2.5880    2.8380 H   0  0
    6.3440   -0.4220    1.0020 H   0  0
    7.5250    1.2010    0.2310 H   0  0
    7.2130   -0.1910   -0.9490 H   0  0
    7.7700    1.3850   -1.5040 H   0  0
  1  2  1  0
  1  3  1  0
  2  4  1  0
  3  5  1  0
  4  6  1  0
  4  7  2  0
  5  8  2  0
  6  9  2  0
  6 10  1  0
  7 11  1  0
  9 12  1  0
  9 13  1  0
 10 14  2  0
 11 15  1  0
 11 16  1  0
 13 17  2  0
 14 18  1  0
 18 19  2  0
 18 20  1  0
 19 21  1  0
 19 22  1  0
 20 23  2  0
 21 24  1  0
 22 25  2  0
 23 26  1  0
 26 27  1  0
 11 12  1  0
 14 17  1  0
 23 25  1  0
  2 28  1  0
  2 29  1  0
  3 30  1  0
  3 31  1  0
  5 32  1  0
  7 33  1  0
  8 34  1  0
  8 35  1  0
 10 36  1  0
 12 37  1  0
 13 38  1  0
 15 39  1  0
 15 40  1  0
 15 41  1  0
 16 42  1  0
 16 43  1  0
 16 44  1  0
 17 45  1  0
 20 46  1  0
 22 47  1  0
 24 48  1  0
 24 49  1  0
 24 50  1  0
 25 51  1  0
 27 52  1  0
 27 53  1  0
 27 54  1  0
M  END
> <Name>
CHEMBL203431

> <IC50 nM>
2000

> <Molecule_ChEMBL_ID>
CHEMBL203431

> <Smiles>
C=CCSCC1=CC(C)(C)Nc2ccc(-c3cc(OC)ccc3OC)cc21

$$$$
CHEMBL381719
  SciTegic08162514323D

 46 48  0  0  0  0            999 V2000
   -1.0860   -2.2810    1.4820 S   0  0
   -1.4960   -1.8280   -0.2270 C   0  0
   -0.8160   -4.0590    1.2420 C   0  0
   -1.8030   -0.3520   -0.2970 C   0  0
    0.4180   -4.2720    0.4080 C   0  0
   -0.7190    0.6720   -0.2460 C   0  0
   -3.0880    0.0410   -0.4060 C   0  0
    1.5680   -3.7050    0.8110 C   0  0
   -1.0510    2.0550   -0.3160 C   0  0
    0.6390    0.2710   -0.1270 C   0  0
   -3.4900    1.5040   -0.4840 C   0  0
   -2.3420    2.4570   -0.4300 N   0  0
   -0.0100    3.0200   -0.2660 C   0  0
    1.6720    1.2380   -0.0780 C   0  0
   -4.2420    1.7230   -1.7990 C   0  0
   -4.4240    1.8030    0.6910 C   0  0
    1.3380    2.6130   -0.1480 C   0  0
    3.0610    0.8240    0.0450 C   0  0
    3.8770    1.3360    1.0760 C   0  0
    3.5940   -0.0960   -0.8790 C   0  0
    3.4020    2.2070    1.9650 F   0  0
    5.2190    0.9220    1.1760 C   0  0
    4.9340   -0.5040   -0.7730 C   0  0
    5.7460    0.0040    0.2540 C   0  0
   -0.6540   -2.0630   -0.8770 H   0  0
   -2.3630   -2.4020   -0.5550 H   0  0
   -1.6820   -4.4920    0.7380 H   0  0
   -0.6970   -4.5430    2.2110 H   0  0
    0.4800   -4.8440   -0.5040 H   0  0
   -3.8650   -0.7090   -0.4430 H   0  0
    2.5270   -3.7600    0.3160 H   0  0
    1.5080   -3.1390    1.7290 H   0  0
    0.8890   -0.7790   -0.0740 H   0  0
   -2.5590    3.4340   -0.4820 H   0  0
   -0.2320    4.0760   -0.3180 H   0  0
   -3.6130    1.5200   -2.6660 H   0  0
   -4.5940    2.7520   -1.8750 H   0  0
   -5.1130    1.0680   -1.8570 H   0  0
   -3.9120    1.6450    1.6410 H   0  0
   -4.7810    2.8320    0.6480 H   0  0
   -5.2950    1.1470    0.6700 H   0  0
    2.1110    3.3690   -0.1110 H   0  0
    2.9840   -0.4960   -1.6780 H   0  0
    5.8480    1.3110    1.9650 H   0  0
    5.3400   -1.2090   -1.4840 H   0  0
    6.7750   -0.3110    0.3320 H   0  0
  1  2  1  0
  1  3  1  0
  2  4  1  0
  3  5  1  0
  4  6  1  0
  4  7  2  0
  5  8  2  0
  6  9  2  0
  6 10  1  0
  7 11  1  0
  9 12  1  0
  9 13  1  0
 10 14  2  0
 11 15  1  0
 11 16  1  0
 13 17  2  0
 14 18  1  0
 18 19  2  0
 18 20  1  0
 19 21  1  0
 19 22  1  0
 20 23  2  0
 22 24  2  0
 11 12  1  0
 14 17  1  0
 23 24  1  0
  2 25  1  0
  2 26  1  0
  3 27  1  0
  3 28  1  0
  5 29  1  0
  7 30  1  0
  8 31  1  0
  8 32  1  0
 10 33  1  0
 12 34  1  0
 13 35  1  0
 15 36  1  0
 15 37  1  0
 15 38  1  0
 16 39  1  0
 16 40  1  0
 16 41  1  0
 17 42  1  0
 20 43  1  0
 22 44  1  0
 23 45  1  0
 24 46  1  0
M  END
> <Name>
CHEMBL381719

> <IC50 nM>
2000

> <Molecule_ChEMBL_ID>
CHEMBL381719

> <Smiles>
C=CCSCC1=CC(C)(C)Nc2ccc(-c3ccccc3F)cc21

$$$$
CHEMBL196232
  SciTegic08162514323D

 53 58  0  0  1  0            999 V2000
   -6.8970   -0.8890    4.7750 F   0  0
   -5.9980   -1.1660    3.8340 C   0  0
   -5.7420   -0.2380    2.8110 C   0  0
   -5.3050   -2.3890    3.8610 C   0  0
   -4.7950   -0.5310    1.8140 C   0  0
   -4.3580   -2.6840    2.8670 C   0  0
   -4.0980   -1.7560    1.8420 C   0  0
   -3.1820   -2.0390    0.8790 N   0  0
   -3.0860   -3.2320    0.2320 N   0  0
   -2.2250   -1.1930    0.4180 C   0  0
   -2.0700   -3.2750   -0.6700 C   0  0
   -1.5550   -1.9920   -0.5000 C   0  0
   -1.8790    0.2110    0.7360 C   0  0
   -0.3220   -1.4320   -1.2150 C   0  0
   -0.9360    0.7970   -0.0290 C   0  0
   -0.3110    0.1290   -1.2400 C   0  0  1  0  0  0
   -0.3520    2.1620    0.2050 C   0  0
    1.0800    0.8110   -1.2190 C   0  0  1  0  0  0
   -1.0980    0.6150   -2.4610 C   0  0
    0.7990    2.2720   -0.8050 C   0  0
    1.9550    0.2010   -0.2730 O   0  0
    1.7790    0.7190   -2.4470 O   0  0
    3.1210   -0.2910   -0.9000 C   0  0  1  0  0  0
    2.7170   -0.3280   -2.3750 C   0  0
    4.2580    0.6310   -0.6250 C   0  0
    4.2620    1.9280   -1.1700 C   0  0
    5.3280    0.2070    0.1840 C   0  0
    5.3340    2.7970   -0.9100 C   0  0
    6.4000    1.0780    0.4430 C   0  0
    6.4040    2.3730   -0.1040 C   0  0
   -6.2740    0.7030    2.7830 H   0  0
   -5.5000   -3.1050    4.6470 H   0  0
   -4.6110    0.1950    1.0350 H   0  0
   -3.8340   -3.6290    2.9060 H   0  0
   -1.7790   -4.0960   -1.3150 H   0  0
   -2.3560    0.7380    1.5490 H   0  0
    0.5470   -1.8220   -0.6840 H   0  0
   -0.2560   -1.8280   -2.2310 H   0  0
    0.0080    2.2360    1.2230 H   0  0
   -1.0920    2.9340    0.0450 H   0  0
   -2.1170    0.2310   -2.4410 H   0  0
   -1.1290    1.7050   -2.4900 H   0  0
   -0.6310    0.2700   -3.3830 H   0  0
    1.6660    2.7660   -0.3890 H   0  0
    0.4780    2.8520   -1.6600 H   0  0
    3.3520   -1.2710   -0.5100 H   0  0
    2.2130   -1.2560   -2.6090 H   0  0
    3.5230   -0.1760   -3.0800 H   0  0
    3.4410    2.2600   -1.7910 H   0  0
    5.3320   -0.7870    0.6050 H   0  0
    5.3360    3.7930   -1.3300 H   0  0
    7.2230    0.7520    1.0640 H   0  0
    7.2290    3.0410    0.0980 H   0  0
  1  2  1  0
  2  3  2  0
  2  4  1  0
  3  5  1  0
  4  6  2  0
  5  7  2  0
  7  8  1  0
  8  9  1  0
  8 10  1  0
  9 11  2  0
 10 12  2  0
 10 13  1  0
 12 14  1  0
 13 15  2  0
 14 16  1  0
 15 17  1  0
 16 18  1  0
 16 19  1  0
 17 20  1  0
 18 21  1  0
 18 22  1  0
 21 23  1  0
 22 24  1  0
 23 25  1  0
 25 26  2  0
 25 27  1  0
 26 28  1  0
 27 29  2  0
 28 30  2  0
  6  7  1  0
 11 12  1  0
 15 16  1  0
 18 20  1  0
 23 24  1  0
 29 30  1  0
  3 31  1  0
  4 32  1  0
  5 33  1  0
  6 34  1  0
 11 35  1  0
 13 36  1  0
 14 37  1  0
 14 38  1  0
 17 39  1  0
 17 40  1  0
 19 41  1  0
 19 42  1  0
 19 43  1  0
 20 44  1  0
 20 45  1  0
 23 46  1  0
 24 47  1  0
 24 48  1  0
 26 49  1  0
 27 50  1  0
 28 51  1  0
 29 52  1  0
 30 53  1  0
M  END
> <Name>
CHEMBL196232

> <IC50 nM>
8.5

> <Molecule_ChEMBL_ID>
CHEMBL196232

> <Smiles>
C[C@]12Cc3cnn(-c4ccc(F)cc4)c3C=C1CC[C@]21OC[C@@H](c2ccccc2)O1

$$$$
CHEMBL250104
  SciTegic08162514323D

 35 36  0  0  0  0            999 V2000
   -1.5430    2.1250    0.5760 Br  0  0
   -0.8610    0.3670    0.4840 C   0  0
   -1.3810   -0.5660   -0.4390 C   0  0
    0.1780   -0.0100    1.3550 C   0  0
   -2.3560   -0.2170   -1.2600 O   0  0
   -0.8520   -1.8750   -0.4820 C   0  0
    0.7010   -1.3120    1.3090 C   0  0
   -2.0230    0.0630   -2.6110 C   0  0
   -1.5160   -3.1520   -1.7050 Br  0  0
    0.1880   -2.2420    0.3930 C   0  0
    1.7990   -1.7050    2.2320 C   0  0
   -1.4570    1.4340   -2.7070 C   0  0
    1.2580   -2.3300    3.5180 C   0  0
   -0.0700    1.6330   -2.5860 C   0  0
   -2.3070    2.5330   -2.9220 C   0  0
    2.3540   -2.7400    4.4630 C   0  0
    0.4690    2.9300   -2.6760 C   0  0
   -1.7720    3.8280   -3.0140 C   0  0
    2.5820   -3.9060    4.6860 O   0  0
    3.0290   -1.7360    5.0160 O   0  0
    2.3260    3.1950   -2.5100 Br  0  0
   -0.3850    4.0290   -2.8890 C   0  0
    0.5840    0.6970    2.0660 H   0  0
   -2.9340    0.0040   -3.2070 H   0  0
   -1.2770   -0.6620   -2.9360 H   0  0
    0.6000   -3.2420    0.3670 H   0  0
    2.4730   -2.3950    1.7230 H   0  0
    2.4140   -0.8340    2.4570 H   0  0
    0.6880   -3.2070    3.2090 H   0  0
    0.5720   -1.6480    4.0200 H   0  0
    0.5760    0.7810   -2.4220 H   0  0
   -3.3730    2.3870   -3.0180 H   0  0
   -2.4260    4.6720   -3.1780 H   0  0
    3.7320   -1.9300    5.6490 H   0  0
    0.0100    5.0310   -2.9610 H   0  0
  1  2  1  0
  2  3  2  0
  2  4  1  0
  3  5  1  0
  3  6  1  0
  4  7  2  0
  5  8  1  0
  6  9  1  0
  6 10  2  0
  7 11  1  0
  8 12  1  0
 11 13  1  0
 12 14  2  0
 12 15  1  0
 13 16  1  0
 14 17  1  0
 15 18  2  0
 16 19  2  0
 16 20  1  0
 17 21  1  0
 17 22  2  0
  7 10  1  0
 18 22  1  0
  4 23  1  0
  8 24  1  0
  8 25  1  0
 10 26  1  0
 11 27  1  0
 11 28  1  0
 13 29  1  0
 13 30  1  0
 14 31  1  0
 15 32  1  0
 18 33  1  0
 20 34  1  0
 22 35  1  0
M  END
> <Name>
CHEMBL250104

> <IC50 nM>
14000

> <Molecule_ChEMBL_ID>
CHEMBL250104

> <Smiles>
O=C(O)CCc1cc(Br)c(OCc2cccc(Br)c2)c(Br)c1

$$$$
CHEMBL5177023
  SciTegic08162514323D

 86 93  0  0  1  0            999 V2000
  -10.3870    2.2620    1.7360 S   0  0
   -8.7770    1.7130    1.6620 C   0  0
  -10.1880    2.8670    3.2950 C   0  0
   -8.0960    1.9900    2.8180 N   0  0
   -8.2050    1.0270    0.4960 N   0  0
   -8.8810    2.6390    3.7400 C   0  0
   -6.8730    0.7290    0.4630 C   0  0
   -6.1580    1.0270    1.3930 O   0  0
   -6.3180    0.0250   -0.7460 C   0  0  2  0  0  0
   -5.0530   -0.6520   -0.4450 N   0  0
   -6.1640    1.0180   -1.8790 C   0  0
   -3.8890    0.0140   -0.1290 N   0  0
   -4.9020   -2.0250   -0.4510 C   0  0
   -6.3280    0.7030   -3.1900 N   0  0
   -5.8440    2.3670   -1.8240 C   0  0
   -2.9020   -0.8870    0.0940 C   0  0
   -3.5570   -2.0820   -0.1110 C   0  0
   -6.1040    1.8570   -3.8930 C   0  0
   -5.8030    2.8710   -3.0370 N   0  0
   -5.5350    3.4100   -0.8030 C   0  0
   -1.5390   -0.7890    0.4410 C   0  0
   -2.8340   -3.3030    0.0350 C   0  0
   -5.4730    4.2930   -3.1920 C   0  0
   -5.4340    4.6800   -1.6800 C   0  0
   -0.8140   -2.0080    0.5880 C   0  0
   -0.9060    0.5310    0.6440 C   0  0
   -1.4610   -3.2600    0.3850 C   0  0
   -3.4840   -4.6090   -0.1720 C   0  0
   -5.9710    5.1900   -4.3030 C   0  0
   -4.4980    4.8240   -4.2190 C   0  0
    0.5800   -1.9790    0.9430 C   0  0
   -4.5270   -4.7440    0.7070 F   0  0
   -3.9550   -4.6890   -1.4570 F   0  0
    1.7300   -1.9450    1.2380 C   0  0
    3.1170   -1.8850    1.6000 C   0  0
    3.8160   -3.0680    1.8890 C   0  0
    3.7680   -0.6410    1.6620 C   0  0
    5.1780   -3.0080    2.2420 C   0  0
    5.1310   -0.5820    2.0180 C   0  0
    5.8360   -1.7640    2.3090 C   0  0
    7.2720   -1.7010    2.6840 C   0  0
    8.1040   -1.3050    1.5530 N   0  0
    8.0240   -2.2810    0.4570 C   0  0
    9.4880   -1.0430    1.9690 C   0  0
    8.8200   -1.7990   -0.7680 C   0  0
   10.3280   -0.5230    0.7910 C   0  0
   10.2790   -1.4800   -0.4100 C   0  0
   11.0430   -0.9140   -1.6110 C   0  0
   12.4080   -0.8400   -1.2720 O   0  0
  -10.9670    3.3610    3.8590 H   0  0
   -8.7910    0.7790   -0.2750 H   0  0
   -8.4920    2.9300    4.7050 H   0  0
   -7.0410   -0.7010   -1.1170 H   0  0
   -5.6450   -2.7890   -0.6640 H   0  0
   -6.1580    1.9510   -4.9710 H   0  0
   -4.6020    3.1800   -0.3110 H   0  0
   -6.3200    3.4790   -0.0630 H   0  0
   -4.5330    5.2310   -1.4450 H   0  0
   -6.2620    5.3400   -1.4590 H   0  0
    0.0210    0.4060    1.2030 H   0  0
   -0.7560    1.0140   -0.3200 H   0  0
   -1.5680    1.1640    1.2360 H   0  0
   -0.9100   -4.1800    0.4960 H   0  0
   -2.7600   -5.4060    0.0000 H   0  0
   -6.5630    4.7380   -5.1000 H   0  0
   -6.2560    6.2090   -4.0410 H   0  0
   -4.1070    4.1270   -4.9610 H   0  0
   -3.8010    5.6000   -3.9040 H   0  0
    3.3260   -4.0310    1.8420 H   0  0
    3.2420    0.2790    1.4410 H   0  0
    5.7150   -3.9200    2.4650 H   0  0
    5.6310    0.3770    2.0660 H   0  0
    7.5940   -2.6760    3.0490 H   0  0
    7.4020   -0.9900    3.4980 H   0  0
    8.4080   -3.2440    0.7990 H   0  0
    6.9810   -2.4320    0.1780 H   0  0
    9.9280   -1.9590    2.3670 H   0  0
    9.4940   -0.3070    2.7750 H   0  0
    8.7850   -2.5610   -1.5490 H   0  0
    8.3420   -0.9100   -1.1820 H   0  0
    9.9570    0.4590    0.4920 H   0  0
   11.3600   -0.3790    1.1130 H   0  0
   10.7660   -2.4120   -0.1170 H   0  0
   10.6970    0.0920   -1.8480 H   0  0
   10.9440   -1.5700   -2.4750 H   0  0
   12.8770   -0.4820   -2.0410 H   0  0
  1  2  1  0
  1  3  1  0
  2  4  2  0
  2  5  1  0
  3  6  2  0
  5  7  1  0
  7  8  2  0
  7  9  1  0
  9 10  1  0
  9 11  1  0
 10 12  1  0
 10 13  1  0
 11 14  1  0
 11 15  2  0
 12 16  2  0
 13 17  2  0
 14 18  2  0
 15 19  1  0
 15 20  1  0
 16 21  1  0
 17 22  1  0
 19 23  1  0
 20 24  1  0
 21 25  2  0
 21 26  1  0
 22 27  2  0
 22 28  1  0
 23 29  1  0
 23 30  1  0
 25 31  1  0
 28 32  1  0
 28 33  1  0
 31 34  3  0
 34 35  1  0
 35 36  2  0
 35 37  1  0
 36 38  1  0
 37 39  2  0
 38 40  2  0
 40 41  1  0
 41 42  1  0
 42 43  1  0
 42 44  1  0
 43 45  1  0
 44 46  1  0
 45 47  1  0
 47 48  1  0
 48 49  1  0
  4  6  1  0
 16 17  1  0
 18 19  1  0
 23 24  1  0
 25 27  1  0
 29 30  1  0
 39 40  1  0
 46 47  1  0
  3 50  1  0
  5 51  1  0
  6 52  1  0
  9 53  1  0
 13 54  1  0
 18 55  1  0
 20 56  1  0
 20 57  1  0
 24 58  1  0
 24 59  1  0
 26 60  1  0
 26 61  1  0
 26 62  1  0
 27 63  1  0
 28 64  1  0
 29 65  1  0
 29 66  1  0
 30 67  1  0
 30 68  1  0
 36 69  1  0
 37 70  1  0
 38 71  1  0
 39 72  1  0
 41 73  1  0
 41 74  1  0
 43 75  1  0
 43 76  1  0
 44 77  1  0
 44 78  1  0
 45 79  1  0
 45 80  1  0
 46 81  1  0
 46 82  1  0
 47 83  1  0
 48 84  1  0
 48 85  1  0
 49 86  1  0
M  END
> <Name>
CHEMBL5177023

> <IC50 nM>
3200

> <Molecule_ChEMBL_ID>
CHEMBL5177023

> <Smiles>
Cc1c(C#Cc2ccc(CN3CCC(CO)CC3)cc2)cc(C(F)F)c2cn(C(C(=O)Nc3nccs3)c3ncn4c3CCC43CC3)nc12

$$$$
CHEMBL373083
  SciTegic08162514323D

 63 66  0  0  1  0            999 V2000
    0.6720   -7.2070   -0.6780 F   0  0
   -0.0700   -6.1040   -0.6950 C   0  0
    0.5310   -4.8560   -0.9350 C   0  0
   -1.4550   -6.1840   -0.4750 C   0  0
   -0.2540   -3.6880   -0.9550 C   0  0
   -2.2380   -5.0180   -0.4920 C   0  0
   -1.6430   -3.7680   -0.7320 C   0  0
    0.3920   -2.3710   -1.2110 C   0  0
   -2.3890   -2.6800   -0.7480 O   0  0
    0.5080   -2.0140    0.2720 C   0  0
   -0.5370   -1.4280   -1.9750 C   0  0
    1.7540   -2.5350   -1.8870 C   0  0
    0.9510   -0.5680    0.4960 C   0  0  1  0  0  0
    1.9490   -0.2600   -0.4510 O   0  0
   -0.1860    0.4080    0.3630 C   0  0
    1.5310   -0.3380    1.8930 C   0  0
   -1.2310    0.2300    0.9430 O   0  0
   -0.0180    1.5080   -0.4320 N   0  0
    2.0390    1.0510    2.0530 C   0  0
   -1.0140    2.3950   -0.5700 C   0  0
    3.4180    1.3280    1.9530 C   0  0
    1.1330    2.0940    2.3070 C   0  0
   -2.3600    1.9530   -0.6840 C   0  0
   -0.7380    3.7850   -0.6030 C   0  0
    3.8810    2.6480    2.1080 C   0  0
    4.3960    0.2380    1.6860 C   0  0
    1.5960    3.4120    2.4590 C   0  0
   -3.4160    2.8850   -0.8320 C   0  0
   -1.7970    4.7130   -0.7480 C   0  0
    2.9710    3.6880    2.3610 C   0  0
   -3.1230    4.2340   -0.8590 C   0  0
   -4.9200    2.7660   -0.9780 C   0  0
   -4.3400    5.0060   -1.0160 C   0  0
   -5.3850    4.1470   -1.0860 O   0  0
   -4.3790    6.2130   -1.0680 O   0  0
    1.5960   -4.7930   -1.1050 H   0  0
   -1.9220   -7.1410   -0.2890 H   0  0
   -3.3030   -5.0840   -0.3220 H   0  0
   -2.2870   -2.0270   -0.0430 H   0  0
   -0.4280   -2.2150    0.7910 H   0  0
    1.1780   -2.7050    0.7830 H   0  0
   -1.1310   -1.9570   -2.7190 H   0  0
    0.0350   -0.6560   -2.4900 H   0  0
   -1.2270   -0.9300   -1.2910 H   0  0
    2.5290   -2.8140   -1.1740 H   0  0
    2.0590   -1.6050   -2.3670 H   0  0
    1.7110   -3.3090   -2.6540 H   0  0
    2.3610    0.5720   -0.1720 H   0  0
    0.7830   -0.5410    2.6580 H   0  0
    2.3340   -1.0450    2.0980 H   0  0
    0.8500    1.6500   -0.9100 H   0  0
    0.0740    1.8890    2.3830 H   0  0
   -2.5980    0.8980   -0.6600 H   0  0
    0.2750    4.1540   -0.5190 H   0  0
    4.9360    2.8670    2.0330 H   0  0
    5.3770    0.6700    1.4880 H   0  0
    4.4040   -0.4570    2.5250 H   0  0
    4.0900   -0.3140    0.7990 H   0  0
    0.8960    4.2110    2.6540 H   0  0
   -1.5900    5.7740   -0.7710 H   0  0
    3.3280    4.7010    2.4790 H   0  0
   -5.3690    2.2990   -0.1130 H   0  0
   -5.1900    2.2230   -1.8750 H   0  0
  1  2  1  0
  2  3  2  0
  2  4  1  0
  3  5  1  0
  4  6  2  0
  5  7  2  0
  5  8  1  0
  7  9  1  0
  8 10  1  0
  8 11  1  0
  8 12  1  0
 10 13  1  0
 13 14  1  0
 13 15  1  0
 13 16  1  0
 15 17  2  0
 15 18  1  0
 16 19  1  0
 18 20  1  0
 19 21  2  0
 19 22  1  0
 20 23  2  0
 20 24  1  0
 21 25  1  0
 21 26  1  0
 22 27  2  0
 23 28  1  0
 24 29  2  0
 25 30  2  0
 28 31  2  0
 28 32  1  0
 31 33  1  0
 32 34  1  0
 33 35  2  0
  6  7  1  0
 27 30  1  0
 29 31  1  0
 33 34  1  0
  3 36  1  0
  4 37  1  0
  6 38  1  0
  9 39  1  0
 10 40  1  0
 10 41  1  0
 11 42  1  0
 11 43  1  0
 11 44  1  0
 12 45  1  0
 12 46  1  0
 12 47  1  0
 14 48  1  0
 16 49  1  0
 16 50  1  0
 18 51  1  0
 22 52  1  0
 23 53  1  0
 24 54  1  0
 25 55  1  0
 26 56  1  0
 26 57  1  0
 26 58  1  0
 27 59  1  0
 29 60  1  0
 30 61  1  0
 32 62  1  0
 32 63  1  0
M  END
> <Name>
CHEMBL373083

> <IC50 nM>
48

> <Molecule_ChEMBL_ID>
CHEMBL373083

> <Smiles>
Cc1ccccc1CC(O)(CC(C)(C)c1cc(F)ccc1O)C(=O)Nc1ccc2c(c1)COC2=O

$$$$
CHEMBL370624
  SciTegic08162514323D

 60 63  0  0  1  0            999 V2000
   -5.7270    4.6190   -1.5120 O   0  0
   -5.6880    3.4120   -1.4570 C   0  0
   -6.7350    2.5510   -1.5270 O   0  0
   -4.4710    2.6390   -1.3030 C   0  0
   -6.2680    1.1700   -1.4200 C   0  0
   -4.7660    1.2890   -1.2730 C   0  0
   -3.1450    3.1190   -1.1900 C   0  0
   -3.7070    0.3570   -1.1270 C   0  0
   -2.0880    2.1910   -1.0450 C   0  0
   -2.3610    0.7990   -1.0120 C   0  0
   -1.3650   -0.0880   -0.8730 N   0  0
   -0.3380    0.1680   -0.0120 C   0  0
   -0.3200    1.1910    0.6310 O   0  0
    0.7640   -0.8480    0.1210 C   0  0  1  0  0  0
    1.7730   -0.3400    0.9630 O   0  0
    0.2710   -2.1700    0.7090 C   0  0
    1.3480   -1.0080   -1.2830 C   0  0
   -0.3730   -1.9730    2.0350 C   0  0
    2.3690    0.0780   -1.6250 C   0  0
   -1.7700   -1.8030    2.1270 C   0  0
    0.4160   -1.9570    3.1970 C   0  0
    3.6050   -0.0570   -0.8130 C   0  0
    2.6820    0.1440   -3.1210 C   0  0
    1.9980    1.4410   -1.0390 C   0  0
   -2.5220   -1.8170    1.0450 O   0  0
   -2.3650   -1.6170    3.3890 C   0  0
   -0.1840   -1.7720    4.4550 C   0  0
    4.4980    1.0250   -0.7010 C   0  0
    3.8870   -1.2680   -0.1540 C   0  0
   -1.5760   -1.6020    4.5490 C   0  0
    5.6680    0.8940    0.0660 C   0  0
    5.0570   -1.3970    0.6150 C   0  0
    5.9470   -0.3150    0.7250 C   0  0
   -6.7170    0.7050   -0.5550 H   0  0
   -6.5370    0.6290   -2.3160 H   0  0
   -2.9400    4.1800   -1.2150 H   0  0
   -3.9450   -0.6950   -1.1040 H   0  0
   -1.0740    2.5590   -0.9610 H   0  0
   -1.3750   -0.9360   -1.4020 H   0  0
    2.1460   -1.0920    1.4490 H   0  0
    1.0960   -2.8790    0.8090 H   0  0
   -0.4300   -2.6560    0.0310 H   0  0
    1.7850   -1.9980   -1.4080 H   0  0
    0.5550   -1.0390   -2.0290 H   0  0
    1.4860   -2.0880    3.1310 H   0  0
    3.4160    0.9160   -3.3480 H   0  0
    1.7810    0.3630   -3.6930 H   0  0
    3.0780   -0.8070   -3.4730 H   0  0
    2.5160    2.2420   -1.5680 H   0  0
    0.9240    1.6090   -1.1040 H   0  0
    2.2830    1.5000    0.0120 H   0  0
   -3.4770   -1.7030    1.1310 H   0  0
   -3.4360   -1.4860    3.4650 H   0  0
    0.4240   -1.7600    5.3460 H   0  0
    4.2890    1.9570   -1.2050 H   0  0
    3.2050   -2.1040   -0.2340 H   0  0
   -2.0370   -1.4590    5.5160 H   0  0
    6.3520    1.7260    0.1520 H   0  0
    5.2710   -2.3260    1.1190 H   0  0
    6.8460   -0.4140    1.3160 H   0  0
  1  2  2  0
  2  3  1  0
  2  4  1  0
  3  5  1  0
  4  6  2  0
  4  7  1  0
  6  8  1  0
  7  9  2  0
  8 10  2  0
 10 11  1  0
 11 12  1  0
 12 13  2  0
 12 14  1  0
 14 15  1  0
 14 16  1  0
 14 17  1  0
 16 18  1  0
 17 19  1  0
 18 20  2  0
 18 21  1  0
 19 22  1  0
 19 23  1  0
 19 24  1  0
 20 25  1  0
 20 26  1  0
 21 27  2  0
 22 28  2  0
 22 29  1  0
 26 30  2  0
 28 31  1  0
 29 32  2  0
 31 33  2  0
  5  6  1  0
  9 10  1  0
 27 30  1  0
 32 33  1  0
  5 34  1  0
  5 35  1  0
  7 36  1  0
  8 37  1  0
  9 38  1  0
 11 39  1  0
 15 40  1  0
 16 41  1  0
 16 42  1  0
 17 43  1  0
 17 44  1  0
 21 45  1  0
 23 46  1  0
 23 47  1  0
 23 48  1  0
 24 49  1  0
 24 50  1  0
 24 51  1  0
 25 52  1  0
 26 53  1  0
 27 54  1  0
 28 55  1  0
 29 56  1  0
 30 57  1  0
 31 58  1  0
 32 59  1  0
 33 60  1  0
M  END
> <Name>
CHEMBL370624

> <IC50 nM>
61

> <Molecule_ChEMBL_ID>
CHEMBL370624

> <Smiles>
CC(C)(CC(O)(Cc1ccccc1O)C(=O)Nc1ccc2c(c1)COC2=O)c1ccccc1

$$$$
CHEMBL304019
  SciTegic08162514323D

 46 49  0  0  1  0            999 V2000
   -1.2850    5.9340   -3.4980 Cl  0  0
   -0.6410    4.7310   -2.4610 C   0  0
   -0.1760    3.5140   -2.9960 C   0  0
   -0.5760    4.9550   -1.0720 C   0  0
    0.3550    2.5290   -2.1460 C   0  0
   -0.0470    3.9670   -0.2250 C   0  0
    0.4200    2.7540   -0.7600 C   0  0
    0.9840    1.7070    0.1430 C   0  0  2  0  0  0
    2.2910    1.3910   -0.3550 O   0  0
    0.0980    0.5100    0.2850 C   0  0
    2.9080    0.2360   -0.0350 C   0  0
    0.6820   -0.7910    0.3850 C   0  0
   -1.3180    0.6490    0.3460 C   0  0
    2.1660   -0.9040    0.3870 C   0  0
    4.3180    0.1840   -0.1370 C   0  0
   -0.1760   -1.9240    0.4730 C   0  0
   -2.1600   -0.4820    0.4650 C   0  0
    2.8850   -2.0800    0.7770 C   0  0
    5.0120   -0.9920    0.2170 C   0  0
   -1.5780   -1.7690    0.5220 C   0  0
   -3.4920   -0.3380    0.5220 N   0  0
    2.2810   -3.1760    1.2600 O   0  0
    4.2950   -2.1170    0.6800 C   0  0
   -4.4420   -1.6410    0.6840 S   0  0
    2.9800   -4.4080    1.1910 C   0  0
   -4.2400   -2.4770   -0.4880 O   0  0
   -4.0740   -2.2970    1.9260 O   0  0
   -6.1640   -1.1700    0.7680 C   0  0
   -0.2210    3.3260   -4.0590 H   0  0
   -0.9320    5.8830   -0.6480 H   0  0
    0.7130    1.6000   -2.5620 H   0  0
   -0.0020    4.1470    0.8400 H   0  0
    1.1090    2.1450    1.1350 H   0  0
   -1.7620    1.6330    0.3030 H   0  0
    4.8690    1.0450   -0.4820 H   0  0
    0.1890   -2.9370    0.5020 H   0  0
    6.0880   -1.0310    0.1370 H   0  0
   -2.1970   -2.6520    0.6000 H   0  0
   -3.8990    0.5740    0.4650 H   0  0
    4.8340   -3.0100    0.9630 H   0  0
    2.2890   -5.2090    1.4490 H   0  0
    3.4550   -4.4780    0.2110 H   0  0
    3.7710   -4.3950    1.9410 H   0  0
   -6.8540   -2.0060    0.8770 H   0  0
   -6.4380   -0.6290   -0.1390 H   0  0
   -6.3190   -0.5000    1.6130 H   0  0
  1  2  1  0
  2  3  2  0
  2  4  1  0
  3  5  1  0
  4  6  2  0
  5  7  2  0
  8  7  1  0
  8  9  1  0
  8 10  1  0
  9 11  1  0
 10 12  2  0
 10 13  1  0
 11 14  2  0
 11 15  1  0
 12 16  1  0
 13 17  2  0
 14 18  1  0
 15 19  2  0
 16 20  2  0
 17 21  1  0
 18 22  1  0
 18 23  2  0
 21 24  1  0
 22 25  1  0
 24 26  2  0
 24 27  2  0
 24 28  1  0
  6  7  1  0
 12 14  1  0
 17 20  1  0
 19 23  1  0
  3 29  1  0
  4 30  1  0
  5 31  1  0
  6 32  1  0
  8 33  1  0
 13 34  1  0
 15 35  1  0
 16 36  1  0
 19 37  1  0
 20 38  1  0
 21 39  1  0
 23 40  1  0
 25 41  1  0
 25 42  1  0
 25 43  1  0
 28 44  1  0
 28 45  1  0
 28 46  1  0
M  END
> <Name>
CHEMBL304019

> <IC50 nM>
10

> <Molecule_ChEMBL_ID>
CHEMBL304019

> <Smiles>
COc1cccc2c1-c1ccc(NS(C)(=O)=O)cc1C(c1ccc(Cl)cc1)O2

$$$$
CHEMBL65695
  SciTegic08162514323D

 46 49  0  0  1  0            999 V2000
   -0.2580    3.2500   -4.6820 Cl  0  0
   -0.1800    3.5270   -2.9920 C   0  0
    0.3520    2.5390   -2.1410 C   0  0
   -0.6450    4.7400   -2.4530 C   0  0
    0.4160    2.7660   -0.7540 C   0  0
   -0.5800    4.9650   -1.0680 C   0  0
   -0.0510    3.9790   -0.2190 C   0  0
    0.9800    1.7190    0.1480 C   0  0  2  0  0  0
    2.2870    1.4020   -0.3520 O   0  0
    0.0940    0.5210    0.2910 C   0  0
    2.9040    0.2480   -0.0290 C   0  0
    0.6780   -0.7790    0.3910 C   0  0
   -1.3220    0.6600    0.3520 C   0  0
    2.1600   -0.8930    0.3930 C   0  0
    4.3130    0.1950   -0.1310 C   0  0
   -0.1800   -1.9120    0.4790 C   0  0
   -2.1640   -0.4710    0.4710 C   0  0
    2.8810   -2.0680    0.7830 C   0  0
    5.0060   -0.9810    0.2230 C   0  0
   -1.5820   -1.7580    0.5250 C   0  0
   -3.4960   -0.3260    0.5270 N   0  0
    2.2750   -3.1640    1.2660 O   0  0
    4.2910   -2.1060    0.6860 C   0  0
   -4.4450   -1.6290    0.6880 S   0  0
    2.9770   -4.3970    1.1950 C   0  0
   -4.2440   -2.4630   -0.4840 O   0  0
   -4.0800   -2.2870    1.9300 O   0  0
   -6.1700   -1.1580    0.7700 C   0  0
    0.7130    1.6050   -2.5470 H   0  0
   -1.0530    5.5080   -3.0960 H   0  0
   -0.9390    5.8970   -0.6540 H   0  0
   -0.0060    4.1580    0.8460 H   0  0
    1.1050    2.1560    1.1410 H   0  0
   -1.7680    1.6450    0.3090 H   0  0
    4.8630    1.0570   -0.4770 H   0  0
    0.1860   -2.9260    0.5080 H   0  0
    6.0820   -1.0200    0.1430 H   0  0
   -2.2010   -2.6410    0.6050 H   0  0
   -3.9020    0.5860    0.4710 H   0  0
    4.8280   -2.9980    0.9690 H   0  0
    2.2830   -5.1970    1.4510 H   0  0
    3.4490   -4.4650    0.2150 H   0  0
    3.7660   -4.3850    1.9470 H   0  0
   -6.8590   -1.9940    0.8790 H   0  0
   -6.4420   -0.6170   -0.1370 H   0  0
   -6.3220   -0.4880    1.6170 H   0  0
  1  2  1  0
  2  3  2  0
  2  4  1  0
  3  5  1  0
  4  6  2  0
  5  7  2  0
  8  5  1  0
  8  9  1  0
  8 10  1  0
  9 11  1  0
 10 12  2  0
 10 13  1  0
 11 14  2  0
 11 15  1  0
 12 16  1  0
 13 17  2  0
 14 18  1  0
 15 19  2  0
 16 20  2  0
 17 21  1  0
 18 22  1  0
 18 23  2  0
 21 24  1  0
 22 25  1  0
 24 26  2  0
 24 27  2  0
 24 28  1  0
  6  7  1  0
 12 14  1  0
 17 20  1  0
 19 23  1  0
  3 29  1  0
  4 30  1  0
  6 31  1  0
  7 32  1  0
  8 33  1  0
 13 34  1  0
 15 35  1  0
 16 36  1  0
 19 37  1  0
 20 38  1  0
 21 39  1  0
 23 40  1  0
 25 41  1  0
 25 42  1  0
 25 43  1  0
 28 44  1  0
 28 45  1  0
 28 46  1  0
M  END
> <Name>
CHEMBL65695

> <IC50 nM>
3

> <Molecule_ChEMBL_ID>
CHEMBL65695

> <Smiles>
COc1cccc2c1-c1ccc(NS(C)(=O)=O)cc1C(c1cccc(Cl)c1)O2

$$$$
CHEMBL1086311
  SciTegic08162514323D

 36 39  0  0  0  0            999 V2000
    4.3500    5.8130   -0.6450 F   0  0
    3.8620    4.5780   -0.5490 C   0  0
    4.3930    3.5490   -1.3460 C   0  0
    2.8150    4.3030    0.3480 C   0  0
    3.8790    2.2440   -1.2460 C   0  0
    2.2990    3.0000    0.4490 C   0  0
    2.8300    1.9670   -0.3480 C   0  0
    2.3320    0.7050   -0.2500 N   0  0
    3.0820   -0.4490   -0.2270 N   0  0
    1.0260    0.3520   -0.1600 C   0  0
    2.3520   -1.6150   -0.1210 C   0  0
    1.0980   -1.0250   -0.0860 C   0  0
   -0.1970    1.0610   -0.1330 C   0  0
   -0.0990   -1.7810    0.0210 C   0  0
   -1.3940    0.3130   -0.0270 C   0  0
   -1.3530   -1.1090    0.0510 C   0  0
   -2.5880   -1.8710    0.1620 C   0  0
   -2.8830   -2.6410    1.3160 C   0  0
   -3.5020   -1.8280   -0.9160 C   0  0
   -1.9470   -2.6780    2.4120 C   0  0
   -4.0920   -3.3650    1.3830 C   0  0
   -4.6990   -2.5510   -0.8380 C   0  0
   -1.1930   -2.7090    3.2990 N   0  0
   -4.9840   -3.3110    0.3050 C   0  0
    5.1980    3.7560   -2.0350 H   0  0
    2.4040    5.0920    0.9610 H   0  0
    4.3010    1.4670   -1.8670 H   0  0
    1.4940    2.8070    1.1440 H   0  0
    2.7010   -2.6390   -0.0840 H   0  0
   -0.2210    2.1390   -0.1930 H   0  0
   -0.0560   -2.8590    0.0800 H   0  0
   -2.3400    0.8380   -0.0060 H   0  0
   -3.2670   -1.2360   -1.7930 H   0  0
   -4.3160   -3.9430    2.2460 H   0  0
   -5.3770   -2.5100   -1.6600 H   0  0
   -5.9060   -3.8610    0.3550 H   0  0
  1  2  1  0
  2  3  2  0
  2  4  1  0
  3  5  1  0
  4  6  2  0
  5  7  2  0
  7  8  1  0
  8  9  1  0
  8 10  1  0
  9 11  2  0
 10 12  1  0
 10 13  2  0
 12 14  2  0
 13 15  1  0
 14 16  1  0
 16 17  1  0
 17 18  2  0
 17 19  1  0
 18 20  1  0
 18 21  1  0
 19 22  2  0
 20 23  3  0
 21 24  2  0
  6  7  1  0
 11 12  1  0
 15 16  2  0
 22 24  1  0
  3 25  1  0
  4 26  1  0
  5 27  1  0
  6 28  1  0
 11 29  1  0
 13 30  1  0
 14 31  1  0
 15 32  1  0
 19 33  1  0
 21 34  1  0
 22 35  1  0
 24 36  1  0
M  END
> <Name>
CHEMBL1086311

> <IC50 nM>
398.11

> <Molecule_ChEMBL_ID>
CHEMBL1086311

> <Smiles>
N#Cc1ccccc1-c1ccc2c(cnn2-c2ccc(F)cc2)c1

$$$$
CHEMBL65498
  SciTegic08162514323D

 43 46  0  0  1  0            999 V2000
   -2.9360    3.8910   -0.6370 S   0  0
   -2.6020    4.0570    0.7680 O   0  0
   -1.9810    4.5260   -1.5290 O   0  0
   -2.9220    2.3030   -0.9570 N   0  0
   -4.5550    4.5900   -0.9320 C   0  0
   -1.7930    1.5960   -0.7970 C   0  0
   -1.7720    0.2090   -1.0740 C   0  0
   -0.6090    2.2290   -0.3480 C   0  0
   -0.5840   -0.5450   -0.9000 C   0  0
    0.5840    1.4880   -0.1840 C   0  0
    0.6110    0.0880   -0.4470 C   0  0
   -0.5860   -2.0040   -1.1820 C   0  0  1  0  0  0
    1.8320   -0.7480   -0.2870 C   0  0
    0.7150   -2.5040   -1.5180 O   0  0
   -1.1080   -2.7420    0.0330 C   0  0
    1.8180   -2.0410   -0.8950 C   0  0
    3.0060   -0.3380    0.4220 C   0  0
   -2.2290   -3.5920    0.0210 C   0  0
   -0.5290   -2.6680    1.3180 C   0  0
    2.9690   -2.8610   -0.8630 C   0  0
    3.0820    0.8260    1.0840 O   0  0
    4.1450   -1.1780    0.4570 C   0  0
   -2.5310   -4.2560    1.5570 S   0  0
   -1.2110   -3.4550    2.2620 C   0  0
    4.1310   -2.4320   -0.1900 C   0  0
    4.0640    0.9510    2.1000 C   0  0
   -3.7540    1.8500   -1.2740 H   0  0
   -4.6230    5.6600   -0.7320 H   0  0
   -5.2870    4.0860   -0.3030 H   0  0
   -4.8360    4.4260   -1.9710 H   0  0
   -2.6640   -0.2930   -1.4240 H   0  0
   -0.6000    3.2850   -0.1270 H   0  0
    1.4490    2.0410    0.1410 H   0  0
   -1.2460   -2.2280   -2.0220 H   0  0
   -2.8320   -3.8030   -0.8500 H   0  0
    0.3440   -2.0720    1.5550 H   0  0
    2.9590   -3.8240   -1.3540 H   0  0
    5.0330   -0.8590    0.9820 H   0  0
   -0.9420   -3.5470    3.3050 H   0  0
    5.0080   -3.0610   -0.1680 H   0  0
    3.8770    1.8750    2.6450 H   0  0
    4.0640    0.0350    2.6910 H   0  0
    5.0410    1.0370    1.6230 H   0  0
  1  2  2  0
  1  3  2  0
  1  4  1  0
  1  5  1  0
  4  6  1  0
  6  7  2  0
  6  8  1  0
  7  9  1  0
  8 10  2  0
  9 11  2  0
  9 12  1  0
 11 13  1  0
 12 14  1  0
 12 15  1  0
 13 16  2  0
 13 17  1  0
 15 18  2  0
 15 19  1  0
 16 20  1  0
 17 21  1  0
 17 22  2  0
 18 23  1  0
 19 24  2  0
 20 25  2  0
 21 26  1  0
 10 11  1  0
 14 16  1  0
 22 25  1  0
 23 24  1  0
  4 27  1  0
  5 28  1  0
  5 29  1  0
  5 30  1  0
  7 31  1  0
  8 32  1  0
 10 33  1  0
 12 34  1  0
 18 35  1  0
 19 36  1  0
 20 37  1  0
 22 38  1  0
 24 39  1  0
 25 40  1  0
 26 41  1  0
 26 42  1  0
 26 43  1  0
M  END
> <Name>
CHEMBL65498

> <IC50 nM>
11

> <Molecule_ChEMBL_ID>
CHEMBL65498

> <Smiles>
COc1cccc2c1-c1ccc(NS(C)(=O)=O)cc1C(c1ccsc1)O2

$$$$
CHEMBL65570
  SciTegic08162514323D

 50 54  0  0  1  0            999 V2000
   -2.2420    3.6250   -0.6480 S   0  0
   -1.9100    3.7930    0.7560 O   0  0
   -1.2850    4.2540   -1.5410 O   0  0
   -2.2310    2.0350   -0.9650 N   0  0
   -3.7770    4.3240   -0.9240 C   0  0
   -1.1040    1.3280   -0.8010 C   0  0
   -5.1820    3.5370   -1.4650 S   0  0
   -3.9900    5.6930   -0.7070 C   0  0
   -1.0840   -0.0610   -1.0760 C   0  0
    0.0800    1.9570   -0.3530 C   0  0
   -6.0940    4.9710   -1.4240 C   0  0
   -5.3200    6.0620   -0.9940 C   0  0
    0.1030   -0.8170   -0.8980 C   0  0
    1.2710    1.2170   -0.1850 C   0  0
    1.3010   -0.1840   -0.4470 C   0  0
    0.0980   -2.2790   -1.1820 C   0  0  1  0  0  0
    2.5210   -1.0200   -0.2890 C   0  0
    1.4020   -2.7850   -1.5060 O   0  0
   -0.4430   -3.0180   -0.0120 C   0  0
    2.5080   -2.3150   -0.8910 C   0  0
    3.6970   -0.6060    0.4160 C   0  0
   -1.6390   -3.7520   -0.1350 C   0  0
    0.2360   -2.9860    1.2190 C   0  0
    3.6580   -3.1350   -0.8630 C   0  0
    3.7750    0.5580    1.0740 O   0  0
    4.8380   -1.4430    0.4470 C   0  0
   -2.1500   -4.4530    0.9730 C   0  0
   -0.2770   -3.6860    2.3240 C   0  0
    4.8220   -2.6990   -0.1970 C   0  0
    4.7830    0.6970    2.0650 C   0  0
   -1.4710   -4.4180    2.2010 C   0  0
   -3.0650    1.5840   -1.2810 H   0  0
   -3.2310    6.3810   -0.3610 H   0  0
   -1.9790   -0.5610   -1.4220 H   0  0
    0.0920    3.0180   -0.1350 H   0  0
   -7.1390    5.0250   -1.6970 H   0  0
   -5.6990    7.0720   -0.8940 H   0  0
    2.1370    1.7690    0.1410 H   0  0
   -0.5470   -2.4920   -2.0350 H   0  0
   -2.1660   -3.7830   -1.0760 H   0  0
    1.1520   -2.4240    1.3200 H   0  0
    3.6470   -4.0980   -1.3500 H   0  0
    5.7290   -1.1210    0.9670 H   0  0
   -3.0660   -5.0160    0.8770 H   0  0
    0.2460   -3.6600    3.2700 H   0  0
    5.7010   -3.3260   -0.1780 H   0  0
    4.6090    1.6290    2.6020 H   0  0
    4.7990   -0.2110    2.6680 H   0  0
    5.7480    0.7770    1.5610 H   0  0
   -1.8630   -4.9570    3.0510 H   0  0
  1  2  2  0
  1  3  2  0
  1  4  1  0
  1  5  1  0
  4  6  1  0
  5  7  1  0
  5  8  2  0
  6  9  2  0
  6 10  1  0
  7 11  1  0
  8 12  1  0
  9 13  1  0
 10 14  2  0
 13 15  2  0
 13 16  1  0
 15 17  1  0
 16 18  1  0
 16 19  1  0
 17 20  2  0
 17 21  1  0
 19 22  2  0
 19 23  1  0
 20 24  1  0
 21 25  1  0
 21 26  2  0
 22 27  1  0
 23 28  2  0
 24 29  2  0
 25 30  1  0
 27 31  2  0
 11 12  2  0
 14 15  1  0
 18 20  1  0
 26 29  1  0
 28 31  1  0
  4 32  1  0
  8 33  1  0
  9 34  1  0
 10 35  1  0
 11 36  1  0
 12 37  1  0
 14 38  1  0
 16 39  1  0
 22 40  1  0
 23 41  1  0
 24 42  1  0
 26 43  1  0
 27 44  1  0
 28 45  1  0
 29 46  1  0
 30 47  1  0
 30 48  1  0
 30 49  1  0
 31 50  1  0
M  END
> <Name>
CHEMBL65570

> <IC50 nM>
18

> <Molecule_ChEMBL_ID>
CHEMBL65570

> <Smiles>
COc1cccc2c1-c1ccc(NS(=O)(=O)c3cccs3)cc1C(c1ccccc1)O2

$$$$
CHEMBL556523
  SciTegic08162514323D

234245  0  0  1  0            999 V2000
   -7.1560    2.7460   13.8650 S   0  0
   -7.2890    1.0900   14.1130 C   0  0
   -8.4610    0.3970   14.0180 N   0  0
   -6.2340    0.2810   14.4380 N   0  0
   -9.6970    1.1130   13.6760 C   0  0
   -4.8950    0.8670   14.5820 C   0  0
  -10.8890    0.1540   13.6190 C   0  0
   -3.8650   -0.2030   14.9440 C   0  0
  -12.4160    1.0410   13.1990 S   0  0
   -2.4550    0.3630   15.1060 C   0  0
  -13.5650   -0.3630   13.2230 C   0  0
   -1.4960   -0.7070   15.3130 N   0  0
  -14.9530    0.1170   12.8930 C   0  0
   -0.1470   -0.2440   15.0350 C   0  0
   -1.5880   -1.2190   16.6700 C   0  0
  -15.1780    1.2910   12.7190 O   0  0
  -16.0550   -0.9120   12.7870 C   0  0  2  0  0  0
    0.1330   -0.2790   13.5330 C   0  0
  -15.9510   -1.5000   11.5000 O   0  0
  -17.4770   -0.3460   13.0180 C   0  0  2  0  0  0
  -15.9960   -2.0020   13.8850 C   0  0  1  0  0  0
    1.5620    0.1370   13.1900 C   0  0
  -18.3030   -1.6330   13.1490 C   0  0  1  0  0  0
  -18.1160    0.4940   11.8970 C   0  0
  -17.4440    0.4300   14.3500 C   0  0
  -17.4400   -2.5080   14.0590 C   0  0
  -15.0060   -3.1430   13.6330 C   0  0
    1.7910    0.0900   11.7370 N   0  0
  -19.7430   -1.3500   13.6170 C   0  0  1  0  0  0
  -19.6000    0.8260   12.1970 C   0  0  1  0  0  0
    3.0160    0.4300   11.2380 C   0  0
  -20.4630   -0.4160   12.6020 C   0  0  1  0  0  0
  -20.5140   -2.6720   13.8070 C   0  0
  -19.6470    1.8380   13.1880 O   0  0
    3.9060    0.7680   11.9850 O   0  0
    3.2320    0.3750    9.7500 C   0  0
  -20.5960   -1.1350   11.4260 F   0  0
  -21.9200   -0.0980   13.0960 C   0  0  2  0  0  0
  -21.9590   -2.4280   14.2620 C   0  0
    4.6620    0.7440    9.3540 C   0  0
  -22.6760   -1.3910   13.4160 C   0  0
  -22.6550    0.7910   12.0960 C   0  0
  -21.9140    0.6760   14.4220 C   0  0
    4.8360    0.6840    7.8970 N   0  0
  -23.9380   -1.6130   12.9880 C   0  0
  -23.9120    0.5430   11.6860 C   0  0
    6.0550    0.9810    7.3540 C   0  0
  -24.6450   -0.6350   12.1560 C   0  0
    6.9810    1.2910    8.0670 O   0  0
    6.2320    0.9220    5.9080 C   0  0
  -25.8070   -0.7970   11.8620 O   0  0
    7.3910    1.1950    5.2400 N   0  0
    5.2320    0.5780    4.9920 C   0  0
    7.1370    1.0250    3.9140 C   0  0
    8.6780    1.5960    5.8320 C   0  0
    5.8090    0.6430    3.7290 C   0  0
    5.1450    0.3630    2.4450 N   0  0
    3.8280   -0.0040    2.4240 C   0  0
    3.2050   -0.1000    3.4530 O   0  0
    3.1820   -0.2790    1.1470 C   0  0
    1.8770   -0.6520    0.9840 N   0  0
    3.8070   -0.1990   -0.1020 C   0  0
    1.6700   -0.8090   -0.3520 C   0  0
    0.8770   -0.8500    2.0450 C   0  0
    2.8480   -0.5350   -1.0530 C   0  0
    3.0370   -0.5920   -2.5100 N   0  0
    4.2540   -0.2930   -3.0510 C   0  0
    5.1800    0.0160   -2.3400 O   0  0
    4.4320   -0.3530   -4.4960 C   0  0
    5.5920   -0.0800   -5.1640 N   0  0
    3.4320   -0.6970   -5.4120 C   0  0
    5.3380   -0.2500   -6.4920 C   0  0
    6.8770    0.3200   -4.5720 C   0  0
    4.0080   -0.6330   -6.6780 C   0  0
    3.3460   -0.9120   -7.9590 N   0  0
    2.0290   -1.2790   -7.9830 C   0  0
    1.4040   -1.3750   -6.9510 O   0  0
    1.3810   -1.5550   -9.2580 C   0  0
    0.0780   -1.9280   -9.4220 N   0  0
    2.0060   -1.4750  -10.5080 C   0  0
   -0.1290   -2.0840  -10.7580 C   0  0
   -0.9220   -2.1250   -8.3600 C   0  0
    1.0470   -1.8110  -11.4570 C   0  0
    1.2360   -1.8670  -12.9140 N   0  0
    2.4550   -1.5680  -13.4570 C   0  0
    3.3810   -1.2600  -12.7440 O   0  0
    2.6150   -1.6370  -14.9510 C   0  0
    4.0430   -1.3200  -15.3990 C   0  0
    4.2170   -1.3980  -16.9160 C   0  0
    5.6000   -1.0880  -17.3050 N   0  0
    5.9450   -1.1070  -18.6270 C   0  0
    5.1230   -1.3770  -19.4690 O   0  0
    7.3150   -0.7990  -19.0160 C   0  0
    7.7910   -0.7830  -20.2970 N   0  0
    8.3480   -0.4730  -18.1290 C   0  0
    9.1090   -0.4510  -20.2290 C   0  0
    7.0310   -1.0680  -21.5240 C   0  0
    9.4840   -0.2520  -18.8990 C   0  0
   10.8180    0.1170  -18.4070 N   0  0
   11.0330    0.2750  -17.0670 C   0  0
   10.1290    0.1150  -16.2810 O   0  0
   12.3610    0.6430  -16.5900 C   0  0
   12.7090    0.8320  -15.2830 N   0  0
   13.4770    0.8540  -17.4070 C   0  0
   14.0290    1.1600  -15.2640 C   0  0
   11.8300    0.7090  -14.1100 C   0  0
   14.5330    1.1820  -16.5670 C   0  0
   15.9140    1.4900  -16.9690 N   0  0
   16.2600    1.4710  -18.2910 C   0  0
   15.4360    1.2010  -19.1330 O   0  0
   17.6290    1.7790  -18.6800 C   0  0
   18.1060    1.7950  -19.9610 N   0  0
   18.6600    2.1060  -17.7930 C   0  0
   19.4240    2.1270  -19.8930 C   0  0
   17.3440    1.5100  -21.1880 C   0  0
   19.7970    2.3260  -18.5630 C   0  0
   21.1330    2.6950  -18.0710 N   0  0
   21.3480    2.8540  -16.7310 C   0  0
   20.4440    2.6930  -15.9460 O   0  0
   22.6740    3.2210  -16.2540 C   0  0
   23.7560    3.4240  -17.0570 N   0  0
   23.0180    3.4100  -14.9460 N   0  0
   24.7860    3.7440  -16.2480 C   0  0
   24.3280    3.7340  -14.9360 C   0  0
   22.1390    3.2850  -13.7700 C   0  0
   -8.4770   -0.5920   14.1780 H   0  0
   -6.3830   -0.6970   14.5720 H   0  0
   -9.8710    1.8990   14.4100 H   0  0
   -9.5670    1.6210   12.7210 H   0  0
   -4.9240    1.6470   15.3440 H   0  0
   -4.6190    1.3670   13.6530 H   0  0
  -10.7130   -0.6350   12.8890 H   0  0
  -11.0160   -0.3570   14.5720 H   0  0
   -3.8730   -1.0100   14.2110 H   0  0
   -4.1700   -0.7420   15.8420 H   0  0
   -2.4120    1.0570   15.9480 H   0  0
   -2.1700    0.9430   14.2290 H   0  0
  -13.2460   -1.1070   12.4900 H   0  0
  -13.5570   -0.8220   14.2110 H   0  0
    0.5680   -0.8630   15.5760 H   0  0
   -0.0220    0.7660   15.4260 H   0  0
   -2.5720   -1.6020   16.9400 H   0  0
   -1.3360   -0.4260   17.3750 H   0  0
   -0.8690   -2.0250   16.8050 H   0  0
   -0.5880    0.3340   12.9920 H   0  0
   -0.0920   -1.2640   13.1230 H   0  0
  -15.0570   -1.8650   11.4240 H   0  0
  -15.7070   -1.5390   14.8170 H   0  0
    2.2830   -0.5120   13.6860 H   0  0
    1.7700    1.1450   13.5510 H   0  0
  -18.3560   -2.1230   12.1860 H   0  0
  -18.0750   -0.0600   10.9570 H   0  0
  -17.5390    1.4060   11.7310 H   0  0
  -18.4440    0.6310   14.7290 H   0  0
  -16.9360    1.3870   14.2250 H   0  0
  -16.9050   -0.1370   15.1100 H   0  0
  -17.5570   -3.5530   13.8010 H   0  0
  -17.7460   -2.4020   15.0880 H   0  0
  -15.0020   -3.8400   14.4690 H   0  0
  -15.2640   -3.6820   12.7210 H   0  0
  -13.9940   -2.7540   13.5160 H   0  0
    1.0570   -0.1890   11.1190 H   0  0
  -19.7030   -0.8480   14.5840 H   0  0
  -20.0160    1.2850   11.2990 H   0  0
  -20.5180   -3.2480   12.8790 H   0  0
  -20.0160   -3.2990   14.5490 H   0  0
  -19.9790    2.6430   12.7580 H   0  0
    3.0720   -0.6410    9.3910 H   0  0
    2.5140    1.0240    9.2480 H   0  0
  -22.5060   -3.3730   14.2560 H   0  0
  -21.9570   -2.0880   15.2970 H   0  0
    5.3770    0.0740    9.8280 H   0  0
    4.9120    1.7460    9.7050 H   0  0
  -22.1570    1.6620   11.6950 H   0  0
  -22.8700    0.5980   14.9420 H   0  0
  -21.7130    1.7340   14.2500 H   0  0
  -21.1410    0.2930   15.0880 H   0  0
    4.0700    0.4280    7.3050 H   0  0
  -24.4420   -2.5250   13.2600 H   0  0
  -24.3830    1.2270   10.9940 H   0  0
    4.2090    0.3110    5.2250 H   0  0
    7.8850    1.1760    3.1470 H   0  0
    8.6640    1.6740    6.9200 H   0  0
    8.9750    2.5650    5.4340 H   0  0
    9.4450    0.8710    5.5590 H   0  0
    5.6600    0.4410    1.5920 H   0  0
    4.8360    0.0740   -0.2910 H   0  0
    0.7170   -1.1050   -0.7710 H   0  0
    1.2520   -0.6720    3.0530 H   0  0
    0.5040   -1.8730    2.0060 H   0  0
    0.0330   -0.1800    1.8790 H   0  0
    2.2710   -0.8480   -3.1000 H   0  0
    2.4080   -0.9650   -5.1820 H   0  0
    6.0860   -0.1000   -7.2600 H   0  0
    6.8650    0.3980   -3.4840 H   0  0
    7.1760    1.2890   -4.9730 H   0  0
    7.6450   -0.4040   -4.8460 H   0  0
    3.8590   -0.8340   -8.8130 H   0  0
    3.0370   -1.2010  -10.6970 H   0  0
   -1.0820   -2.3810  -11.1760 H   0  0
   -0.5470   -1.9470   -7.3520 H   0  0
   -1.2970   -3.1480   -8.4010 H   0  0
   -1.7660   -1.4550   -8.5260 H   0  0
    0.4730   -2.1230  -13.5060 H   0  0
    2.4080   -2.6460  -15.3030 H   0  0
    1.9040   -0.9650  -15.4320 H   0  0
    4.7580   -1.9730  -14.8970 H   0  0
    4.3570   -0.3460  -15.0260 H   0  0
    3.5390   -0.7070  -17.4180 H   0  0
    3.9550   -2.3910  -17.2830 H   0  0
    6.2830   -0.8630  -16.6100 H   0  0
    8.2720   -0.4060  -17.0510 H   0  0
    9.7420   -0.3630  -21.1020 H   0  0
    5.9820   -1.3140  -21.3540 H   0  0
    7.4900   -1.9060  -22.0470 H   0  0
    7.0680   -0.2010  -22.1840 H   0  0
   11.5690    0.2500  -19.0550 H   0  0
   13.5080    0.7750  -18.4870 H   0  0
   14.5740    1.3670  -14.3520 H   0  0
   10.8010    0.4360  -14.3460 H   0  0
   11.8070    1.6560  -13.5710 H   0  0
   12.2290   -0.0490  -13.4340 H   0  0
   16.5960    1.7150  -16.2740 H   0  0
   18.5860    2.1720  -16.7150 H   0  0
   20.0570    2.2150  -20.7660 H   0  0
   16.2970    1.2640  -21.0180 H   0  0
   17.8030    0.6720  -21.7110 H   0  0
   17.3810    2.3770  -21.8480 H   0  0
   21.8830    2.8280  -18.7190 H   0  0
   25.7860    3.9630  -16.6020 H   0  0
   24.8930    3.9450  -14.0370 H   0  0
   21.1120    3.0120  -14.0060 H   0  0
   22.1170    4.2330  -13.2330 H   0  0
   22.5390    2.5270  -13.0960 H   0  0
  1  2  2  0
  2  3  1  0
  2  4  1  0
  3  5  1  0
  4  6  1  0
  5  7  1  0
  6  8  1  0
  7  9  1  0
  8 10  1  0
  9 11  1  0
 10 12  1  0
 11 13  1  0
 12 14  1  0
 12 15  1  0
 13 16  2  0
 13 17  1  0
 14 18  1  0
 17 19  1  0
 17 20  1  0
 17 21  1  0
 18 22  1  0
 20 23  1  0
 20 24  1  0
 20 25  1  0
 21 26  1  0
 21 27  1  0
 22 28  1  0
 23 29  1  0
 24 30  1  0
 28 31  1  0
 29 32  1  0
 29 33  1  0
 30 34  1  0
 31 35  2  0
 31 36  1  0
 32 37  1  0
 32 38  1  0
 33 39  1  0
 36 40  1  0
 38 41  1  0
 38 42  1  0
 38 43  1  0
 40 44  1  0
 41 45  2  0
 42 46  2  0
 44 47  1  0
 45 48  1  0
 47 49  2  0
 47 50  1  0
 48 51  2  0
 50 52  1  0
 50 53  2  0
 52 54  1  0
 52 55  1  0
 53 56  1  0
 56 57  1  0
 57 58  1  0
 58 59  2  0
 58 60  1  0
 60 61  1  0
 60 62  2  0
 61 63  1  0
 61 64  1  0
 62 65  1  0
 65 66  1  0
 66 67  1  0
 67 68  2  0
 67 69  1  0
 69 70  1  0
 69 71  2  0
 70 72  1  0
 70 73  1  0
 71 74  1  0
 74 75  1  0
 75 76  1  0
 76 77  2  0
 76 78  1  0
 78 79  1  0
 78 80  2  0
 79 81  1  0
 79 82  1  0
 80 83  1  0
 83 84  1  0
 84 85  1  0
 85 86  2  0
 85 87  1  0
 87 88  1  0
 88 89  1  0
 89 90  1  0
 90 91  1  0
 91 92  2  0
 91 93  1  0
 93 94  1  0
 93 95  2  0
 94 96  1  0
 94 97  1  0
 95 98  1  0
 98 99  1  0
 99100  1  0
100101  2  0
100102  1  0
102103  1  0
102104  2  0
103105  1  0
103106  1  0
104107  1  0
107108  1  0
108109  1  0
109110  2  0
109111  1  0
111112  1  0
111113  2  0
112114  1  0
112115  1  0
113116  1  0
116117  1  0
117118  1  0
118119  2  0
118120  1  0
120121  2  0
120122  1  0
121123  1  0
122124  1  0
122125  1  0
 23 26  1  0
 30 32  1  0
 39 41  1  0
 46 48  1  0
 54 56  2  0
 63 65  2  0
 72 74  2  0
 81 83  2  0
 96 98  2  0
105107  2  0
114116  2  0
123124  2  0
  3126  1  0
  4127  1  0
  5128  1  0
  5129  1  0
  6130  1  0
  6131  1  0
  7132  1  0
  7133  1  0
  8134  1  0
  8135  1  0
 10136  1  0
 10137  1  0
 11138  1  0
 11139  1  0
 14140  1  0
 14141  1  0
 15142  1  0
 15143  1  0
 15144  1  0
 18145  1  0
 18146  1  0
 19147  1  0
 21148  1  0
 22149  1  0
 22150  1  0
 23151  1  0
 24152  1  0
 24153  1  0
 25154  1  0
 25155  1  0
 25156  1  0
 26157  1  0
 26158  1  0
 27159  1  0
 27160  1  0
 27161  1  0
 28162  1  0
 29163  1  0
 30164  1  0
 33165  1  0
 33166  1  0
 34167  1  0
 36168  1  0
 36169  1  0
 39170  1  0
 39171  1  0
 40172  1  0
 40173  1  0
 42174  1  0
 43175  1  0
 43176  1  0
 43177  1  0
 44178  1  0
 45179  1  0
 46180  1  0
 53181  1  0
 54182  1  0
 55183  1  0
 55184  1  0
 55185  1  0
 57186  1  0
 62187  1  0
 63188  1  0
 64189  1  0
 64190  1  0
 64191  1  0
 66192  1  0
 71193  1  0
 72194  1  0
 73195  1  0
 73196  1  0
 73197  1  0
 75198  1  0
 80199  1  0
 81200  1  0
 82201  1  0
 82202  1  0
 82203  1  0
 84204  1  0
 87205  1  0
 87206  1  0
 88207  1  0
 88208  1  0
 89209  1  0
 89210  1  0
 90211  1  0
 95212  1  0
 96213  1  0
 97214  1  0
 97215  1  0
 97216  1  0
 99217  1  0
104218  1  0
105219  1  0
106220  1  0
106221  1  0
106222  1  0
108223  1  0
113224  1  0
114225  1  0
115226  1  0
115227  1  0
115228  1  0
117229  1  0
123230  1  0
124231  1  0
125232  1  0
125233  1  0
125234  1  0
M  END
> <Name>
CHEMBL556523

> <IC50 nM>
14

> <Molecule_ChEMBL_ID>
CHEMBL556523

> <Smiles>
C[C@@H]1C[C@H]2[C@@H]3CCC4=CC(=O)C=C[C@]4(C)[C@@]3(F)[C@@H](O)C[C@]2(C)[C@@]1(O)C(=O)CSCCNC(=S)NCCCN(C)CCCNC(=O)CCNC(=O)c1cc(NC(=O)c2cc(NC(=O)c3cc(NC(=O)c4cc(NC(=O)CCCNC(=O)c5cc(NC(=O)c6cc(NC(=O)c7cc(
NC(=O)c8nccn8C)cn7C)cn6C)cn5C)cn4C)cn3C)cn2C)cn1C

$$$$
CHEMBL71113
  SciTegic08162514323D

 58 60  0  0  0  0            999 V2000
    2.6900    1.1370    3.9960 S   0  0
    1.4180    1.7620    4.3200 O   0  0
    3.1820    0.2660    5.0490 O   0  0
    2.4610    0.2270    2.6760 N   0  0
    3.9010    2.4160    3.6910 C   0  0
    1.5960    0.6410    1.6970 C   0  0
    1.0510   -0.2720    0.7640 C   0  0
    1.2500    2.0040    1.6310 C   0  0
    0.1580    0.1930   -0.2340 C   0  0
    1.4160   -1.7210    0.8320 C   0  0
    0.3670    2.4610    0.6420 C   0  0
   -0.3770   -0.6890   -1.1470 N   0  0
   -0.1820    1.5660   -0.2910 C   0  0
    0.2720   -0.9200   -2.4450 C   0  0
   -1.6130   -1.4140   -0.8280 C   0  0
   -1.1210    2.1020   -1.3280 C   0  0
    1.0630   -2.1800   -2.4450 C   0  0
   -2.5490   -0.5800   -0.0310 C   0  0
   -1.1720    1.6130   -2.4340 O   0  0
   -1.9240    3.1600   -1.0060 N   0  0
    0.4040   -3.4240   -2.4450 C   0  0
    2.4670   -2.1290   -2.4450 C   0  0
   -2.4260   -0.5250    1.3690 C   0  0
   -3.5590    0.1580   -0.6760 C   0  0
   -2.8500    3.6970   -2.0120 C   0  0
    1.1500   -4.6130   -2.4450 C   0  0
    3.2130   -3.3200   -2.4450 C   0  0
   -3.3110    0.2660    2.1230 C   0  0
   -4.4430    0.9470    0.0780 C   0  0
    2.5550   -4.5630   -2.4450 C   0  0
   -4.3200    1.0020    1.4760 C   0  0
    2.9530   -0.6390    2.5760 H   0  0
    4.0310    3.1150    4.5180 H   0  0
    3.6090    2.9900    2.8120 H   0  0
    4.8690    1.9570    3.4860 H   0  0
    1.6560    2.7150    2.3360 H   0  0
    1.4630   -2.1230    1.8440 H   0  0
    2.3930   -1.8710    0.3710 H   0  0
    0.6900   -2.3070    0.2730 H   0  0
    0.1110    3.5100    0.6050 H   0  0
    0.9280   -0.0800   -2.6740 H   0  0
   -0.4900   -0.9690   -3.2230 H   0  0
   -1.3670   -2.3180   -0.2700 H   0  0
   -2.1000   -1.7190   -1.7560 H   0  0
   -1.8790    3.5640   -0.0920 H   0  0
   -0.6760   -3.4690   -2.4450 H   0  0
    2.9790   -1.1780   -2.4450 H   0  0
   -1.6520   -1.0880    1.8710 H   0  0
   -3.6600    0.1210   -1.7500 H   0  0
   -3.4430    4.4940   -1.5630 H   0  0
   -2.2830    4.0160   -2.8870 H   0  0
   -3.5330    2.9100   -2.3260 H   0  0
    0.6450   -5.5680   -2.4450 H   0  0
    4.2930   -3.2810   -2.4450 H   0  0
   -3.2150    0.3070    3.1970 H   0  0
   -5.2190    1.5140   -0.4180 H   0  0
    3.1290   -5.4790   -2.4450 H   0  0
   -5.0000    1.6090    2.0570 H   0  0
  1  2  2  0
  1  3  2  0
  1  4  1  0
  1  5  1  0
  4  6  1  0
  6  7  2  0
  6  8  1  0
  7  9  1  0
  7 10  1  0
  8 11  2  0
  9 12  1  0
  9 13  2  0
 12 14  1  0
 12 15  1  0
 13 16  1  0
 14 17  1  0
 15 18  1  0
 16 19  2  0
 16 20  1  0
 17 21  2  0
 17 22  1  0
 18 23  2  0
 18 24  1  0
 20 25  1  0
 21 26  1  0
 22 27  2  0
 23 28  1  0
 24 29  2  0
 26 30  2  0
 28 31  2  0
 11 13  1  0
 27 30  1  0
 29 31  1  0
  4 32  1  0
  5 33  1  0
  5 34  1  0
  5 35  1  0
  8 36  1  0
 10 37  1  0
 10 38  1  0
 10 39  1  0
 11 40  1  0
 14 41  1  0
 14 42  1  0
 15 43  1  0
 15 44  1  0
 20 45  1  0
 21 46  1  0
 22 47  1  0
 23 48  1  0
 24 49  1  0
 25 50  1  0
 25 51  1  0
 25 52  1  0
 26 53  1  0
 27 54  1  0
 28 55  1  0
 29 56  1  0
 30 57  1  0
 31 58  1  0
M  END
> <Name>
CHEMBL71113

> <IC50 nM>
14000

> <Molecule_ChEMBL_ID>
CHEMBL71113

> <Smiles>
CNC(=O)c1ccc(NS(C)(=O)=O)c(C)c1N(Cc1ccccc1)Cc1ccccc1

$$$$
CHEMBL179791
  SciTegic08162514323D

 81 84  0  0  0  0            999 V2000
    2.8650    6.7030    5.0860 S   0  0
    1.6820    7.2970    5.6840 O   0  0
    3.0590    5.3130    5.4610 O   0  0
    2.6760    6.7540    3.4780 N   0  0
    4.3010    7.6410    5.5920 C   0  0
    2.4360    5.5960    2.7790 C   0  0
    1.3030    4.7930    3.0530 C   0  0
    3.3420    5.2110    1.7730 C   0  0
    1.0900    3.6080    2.3090 C   0  0
    0.3360    5.1970    4.1210 C   0  0
    3.1270    4.0350    1.0390 C   0  0
    0.0040    2.8050    2.5450 N   0  0
    2.0060    3.2360    1.3070 C   0  0
   -1.0530    2.6430    1.5350 C   0  0
   -0.1190    2.0900    3.8240 C   0  0
   -1.4140    1.2130    1.3480 C   0  0
    0.6720    0.8300    3.8240 C   0  0
   -0.5640    0.3610    0.6210 C   0  0
   -2.6090    0.7130    1.8940 C   0  0
    0.0140   -0.4140    3.8240 C   0  0
    2.0760    0.8790    3.8240 C   0  0
   -0.9080   -0.9900    0.4450 C   0  0
   -2.9510   -0.6390    1.7150 C   0  0
    0.7600   -1.6050    3.8240 C   0  0
    2.8220   -0.3120    3.8240 C   0  0
   -2.1010   -1.4940    0.9900 C   0  0
    2.1640   -1.5530    3.8240 C   0  0
   -2.4240   -2.7620    0.8240 O   0  0
   -2.1310   -3.3280   -0.3300 C   0  0
   -1.7090   -4.6680   -0.3730 C   0  0
   -2.2400   -2.5940   -1.5240 C   0  0
   -1.3960   -5.2730   -1.6020 C   0  0
   -1.9300   -3.1950   -2.7560 C   0  0
   -1.5080   -4.5370   -2.7950 C   0  0
   -1.1800   -5.1740   -4.0960 C   0  0
   -2.4390   -5.6210   -4.8380 C   0  0
   -2.1270   -6.3340   -6.1540 C   0  0
   -1.4320   -5.4380   -7.1430 C   0  0
   -0.2690   -5.6090   -7.4300 O   0  0
   -2.1410   -4.4200   -7.7170 N   0  0
   -1.4760   -3.5350   -8.6840 C   0  0
   -0.5140   -2.5980   -8.0080 C   0  0
   -0.8440   -1.9610   -7.0350 O   0  0
    0.6950   -2.5350   -8.5590 O   0  0
    2.7330    7.6270    2.9960 H   0  0
    4.8420    8.1100    4.7700 H   0  0
    4.9960    6.9880    6.1190 H   0  0
    3.9960    8.4300    6.2810 H   0  0
    4.2130    5.8130    1.5510 H   0  0
    0.2520    6.2830    4.1450 H   0  0
   -0.6210    4.7030    3.9470 H   0  0
    0.7090    4.8690    5.0900 H   0  0
    3.8240    3.7440    0.2690 H   0  0
    1.8600    2.3320    0.7280 H   0  0
   -0.7090    3.0570    0.5880 H   0  0
   -1.9330    3.2030    1.8440 H   0  0
   -1.1680    1.8590    4.0080 H   0  0
    0.2290    2.7340    4.6310 H   0  0
    0.3560    0.7380    0.1990 H   0  0
   -3.2670    1.3610    2.4530 H   0  0
   -1.0660   -0.4590    3.8240 H   0  0
    2.5880    1.8300    3.8240 H   0  0
   -0.2520   -1.6430   -0.1130 H   0  0
   -3.8690   -1.0190    2.1390 H   0  0
    0.2540   -2.5590    3.8240 H   0  0
    3.9030   -0.2710    3.8240 H   0  0
    2.7380   -2.4690    3.8240 H   0  0
   -1.6230   -5.2380    0.5410 H   0  0
   -2.5640   -1.5640   -1.4980 H   0  0
   -1.0740   -6.3030   -1.6270 H   0  0
   -2.0170   -2.6250   -3.6680 H   0  0
   -0.5120   -6.0200   -3.9280 H   0  0
   -0.5980   -4.4800   -4.7050 H   0  0
   -3.1050   -4.7770   -5.0080 H   0  0
   -3.0600   -6.2480   -4.1990 H   0  0
   -3.0860   -6.6560   -6.5570 H   0  0
   -1.5230   -7.2270   -5.9770 H   0  0
   -3.1010   -4.2850   -7.4750 H   0  0
   -2.2320   -2.9630   -9.2230 H   0  0
   -0.9490   -4.1410   -9.4220 H   0  0
    0.8850   -3.0640   -9.3440 H   0  0
  1  2  2  0
  1  3  2  0
  1  4  1  0
  1  5  1  0
  4  6  1  0
  6  7  2  0
  6  8  1  0
  7  9  1  0
  7 10  1  0
  8 11  2  0
  9 12  1  0
  9 13  2  0
 12 14  1  0
 12 15  1  0
 14 16  1  0
 15 17  1  0
 16 18  2  0
 16 19  1  0
 17 20  2  0
 17 21  1  0
 18 22  1  0
 19 23  2  0
 20 24  1  0
 21 25  2  0
 22 26  2  0
 24 27  2  0
 26 28  1  0
 28 29  1  0
 29 30  2  0
 29 31  1  0
 30 32  1  0
 31 33  2  0
 32 34  2  0
 34 35  1  0
 35 36  1  0
 36 37  1  0
 37 38  1  0
 38 39  2  0
 38 40  1  0
 40 41  1  0
 41 42  1  0
 42 43  2  0
 42 44  1  0
 11 13  1  0
 23 26  1  0
 25 27  1  0
 33 34  1  0
  4 45  1  0
  5 46  1  0
  5 47  1  0
  5 48  1  0
  8 49  1  0
 10 50  1  0
 10 51  1  0
 10 52  1  0
 11 53  1  0
 13 54  1  0
 14 55  1  0
 14 56  1  0
 15 57  1  0
 15 58  1  0
 18 59  1  0
 19 60  1  0
 20 61  1  0
 21 62  1  0
 22 63  1  0
 23 64  1  0
 24 65  1  0
 25 66  1  0
 27 67  1  0
 30 68  1  0
 31 69  1  0
 32 70  1  0
 33 71  1  0
 35 72  1  0
 35 73  1  0
 36 74  1  0
 36 75  1  0
 37 76  1  0
 37 77  1  0
 40 78  1  0
 41 79  1  0
 41 80  1  0
 44 81  1  0
M  END
> <Name>
CHEMBL179791

> <IC50 nM>
1.6

> <Molecule_ChEMBL_ID>
CHEMBL179791

> <Smiles>
Cc1c(NS(C)(=O)=O)cccc1N(Cc1ccccc1)Cc1ccc(Oc2ccc(CCCC(=O)NCC(=O)O)cc2)cc1

$$$$
CHEMBL1940551
  SciTegic08162514323D

 65 70  0  0  1  0            999 V2000
    2.2830    2.6210   -0.8360 S   0  0
    3.6430    2.8440    0.1410 C   0  0
    2.8260    1.4100   -1.9760 C   0  0
    4.9430    2.3440    0.2600 O   0  0
    3.3460    3.8180    1.0940 N   0  0
    3.0080    0.0960   -1.2660 C   0  0
    5.3750    3.0600    1.3030 C   0  0
    4.4710    3.9320    1.8190 C   0  0
    3.9860   -0.1170   -0.5900 O   0  0
    1.9260   -0.9510   -1.4200 C   0  0  2  0  0  0
    6.6510    3.0120    1.9200 C   0  0
    4.5680    4.8070    2.8630 N   0  0
    1.8280   -1.2460   -2.8030 O   0  0
    0.5490   -0.5550   -0.8380 C   0  0  2  0  0  0
    2.2110   -2.2560   -0.6480 C   0  0
    6.8730    3.8890    3.0330 C   0  0
    5.8220    4.7660    3.4770 C   0  0
   -0.1950   -1.8990   -0.8340 C   0  0  1  0  0  0
   -0.3180    0.4300   -1.6420 C   0  0
    0.8030   -0.0530    0.5960 C   0  0
    0.8520   -2.8480   -0.2500 C   0  0
   -1.5350   -1.8170   -0.0800 C   0  0  1  0  0  0
   -1.7270    0.5990   -1.0250 C   0  0  1  0  0  0
   -2.4550   -0.7540   -0.7400 C   0  0  2  0  0  0
   -2.2170   -3.1990   -0.0840 C   0  0
   -1.6210    1.3890    0.1450 O   0  0
   -3.8160   -0.6430    0.0260 C   0  0  2  0  0  0
   -3.5700   -3.1640    0.6370 C   0  0
   -4.4590   -2.0290    0.1660 C   0  0
   -4.7400    0.3710   -0.6440 C   0  0
   -3.6210   -0.1580    1.4710 C   0  0
   -5.7660   -2.2480   -0.0980 C   0  0
   -6.0390    0.1210   -0.8960 C   0  0
   -6.6430   -1.1700   -0.5680 C   0  0
   -7.8320   -1.3460   -0.6830 O   0  0
    2.0880    1.3030   -2.7710 H   0  0
    3.7720    1.7240   -2.4180 H   0  0
    7.4200    2.3440    1.5670 H   0  0
    1.4260   -0.4750   -3.2320 H   0  0
    2.7770   -2.0550    0.2480 H   0  0
    2.8010   -2.9570   -1.2230 H   0  0
    7.8280    3.8910    3.5370 H   0  0
    6.0100    5.4180    4.3170 H   0  0
   -0.3950   -2.2070   -1.8510 H   0  0
   -0.4410    0.0560   -2.6620 H   0  0
    0.1860    1.3940   -1.7380 H   0  0
   -0.1190   -0.0590    1.1740 H   0  0
    1.5410   -0.6800    1.0960 H   0  0
    1.1840    0.9690    0.5840 H   0  0
    0.7250   -3.8560   -0.6170 H   0  0
    0.7640   -2.8910    0.8280 H   0  0
   -1.3460   -1.5280    0.9530 H   0  0
   -2.3160    1.1850   -1.7280 H   0  0
   -2.6910   -1.1470   -1.7340 H   0  0
   -2.3610   -3.5410   -1.1110 H   0  0
   -1.5800   -3.9380    0.4010 H   0  0
   -1.3340    2.2730   -0.1330 H   0  0
   -4.0740   -4.1250    0.5100 H   0  0
   -3.4020   -3.0470    1.7090 H   0  0
   -4.3480    1.3360   -0.9320 H   0  0
   -4.4860   -0.3830    2.0940 H   0  0
   -3.4610    0.9200    1.4960 H   0  0
   -2.7520   -0.6350    1.9220 H   0  0
   -6.1820   -3.2370    0.0370 H   0  0
   -6.6410    0.8940   -1.3500 H   0  0
  1  2  1  0
  1  3  1  0
  2  4  1  0
  2  5  2  0
  3  6  1  0
  4  7  1  0
  5  8  1  0
  6  9  2  0
  6 10  1  0
  7 11  1  0
  8 12  1  0
 10 13  1  0
 10 14  1  0
 10 15  1  0
 11 16  2  0
 12 17  2  0
 14 18  1  0
 14 19  1  0
 14 20  1  0
 15 21  1  0
 18 22  1  0
 19 23  1  0
 24 22  1  0
 22 25  1  0
 23 26  1  0
 24 27  1  0
 25 28  1  0
 27 29  1  0
 27 30  1  0
 27 31  1  0
 29 32  2  0
 30 33  2  0
 32 34  1  0
 34 35  2  0
  7  8  2  0
 16 17  1  0
 18 21  1  0
 23 24  1  0
 28 29  1  0
 33 34  1  0
  3 36  1  0
  3 37  1  0
 11 38  1  0
 13 39  1  0
 15 40  1  0
 15 41  1  0
 16 42  1  0
 17 43  1  0
 18 44  1  0
 19 45  1  0
 19 46  1  0
 20 47  1  0
 20 48  1  0
 20 49  1  0
 21 50  1  0
 21 51  1  0
 22 52  1  0
 23 53  1  0
 24 54  1  0
 25 55  1  0
 25 56  1  0
 26 57  1  0
 28 58  1  0
 28 59  1  0
 30 60  1  0
 31 61  1  0
 31 62  1  0
 31 63  1  0
 32 64  1  0
 33 65  1  0
M  END
> <Name>
CHEMBL1940551

> <IC50 nM>
17.2

> <Molecule_ChEMBL_ID>
CHEMBL1940551

> <Smiles>
C[C@]12C=CC(=O)C=C1CC[C@@H]1[C@@H]2[C@@H](O)C[C@@]2(C)[C@H]1CC[C@]2(O)C(=O)CSc1nc2ncccc2o1

$$$$
CHEMBL1940553
  SciTegic08162514323D

 65 70  0  0  1  0            999 V2000
    5.1250    2.1600    0.4390 S   0  0
    3.5140    2.7460    0.1290 C   0  0
    5.1040    3.0880    1.8120 C   0  0
    2.3110    2.5590   -1.0390 S   0  0
    3.0330    3.6370    1.1070 N   0  0
    6.2460    3.0330    2.5740 N   0  0
    3.9750    3.8200    2.0780 C   0  0
    3.0120    1.3730   -2.1190 C   0  0
    6.2400    3.8050    3.7270 C   0  0
    3.9590    4.6130    3.2540 C   0  0
    3.1820    0.0660   -1.3910 C   0  0
    5.1130    4.6040    4.0920 C   0  0
    4.1520   -0.1390   -0.7010 O   0  0
    2.1020   -0.9800   -1.5470 C   0  0  2  0  0  0
    2.0020   -1.2750   -2.9300 O   0  0
    0.7230   -0.5820   -0.9650 C   0  0  2  0  0  0
    2.3870   -2.2850   -0.7750 C   0  0
   -0.0220   -1.9280   -0.9590 C   0  0  1  0  0  0
   -0.1430    0.4020   -1.7700 C   0  0
    0.9780   -0.0820    0.4690 C   0  0
    1.0250   -2.8770   -0.3750 C   0  0
   -1.3610   -1.8440   -0.2070 C   0  0  1  0  0  0
   -1.5510    0.5700   -1.1500 C   0  0  1  0  0  0
   -2.2810   -0.7830   -0.8670 C   0  0  2  0  0  0
   -2.0430   -3.2270   -0.2110 C   0  0
   -1.4470    1.3610    0.0180 O   0  0
   -3.6430   -0.6720   -0.1020 C   0  0  2  0  0  0
   -3.3970   -3.1910    0.5120 C   0  0
   -4.2850   -2.0570    0.0410 C   0  0
   -4.5670    0.3420   -0.7720 C   0  0
   -3.4470   -0.1870    1.3440 C   0  0
   -5.5920   -2.2770   -0.2230 C   0  0
   -5.8650    0.0940   -1.0220 C   0  0
   -6.4670   -1.1970   -0.6930 C   0  0
   -7.6580   -1.3730   -0.8090 O   0  0
    2.3570    1.2340   -2.9810 H   0  0
    3.9790    1.7310   -2.4710 H   0  0
    7.1090    3.8010    4.3650 H   0  0
    3.0980    5.2110    3.5120 H   0  0
    5.1370    5.1950    4.9960 H   0  0
    1.5620   -0.5210   -3.3520 H   0  0
    2.9510   -2.0840    0.1230 H   0  0
    2.9770   -2.9860   -1.3480 H   0  0
   -0.2210   -2.2340   -1.9790 H   0  0
   -0.2680    0.0270   -2.7870 H   0  0
    0.3590    1.3670   -1.8650 H   0  0
    0.0530   -0.0800    1.0470 H   0  0
    1.7110   -0.7110    0.9730 H   0  0
    1.3650    0.9380    0.4570 H   0  0
    0.9000   -3.8830   -0.7440 H   0  0
    0.9370   -2.9180    0.7010 H   0  0
   -1.1700   -1.5570    0.8280 H   0  0
   -2.1430    1.1580   -1.8540 H   0  0
   -2.5180   -1.1740   -1.8590 H   0  0
   -2.1880   -3.5680   -1.2380 H   0  0
   -1.4040   -3.9670    0.2730 H   0  0
   -1.0470    2.2050   -0.2420 H   0  0
   -3.8990   -4.1540    0.3830 H   0  0
   -3.2290   -3.0760    1.5840 H   0  0
   -4.1720    1.3090   -1.0590 H   0  0
   -4.3050   -0.4280    1.9730 H   0  0
   -3.3050    0.8930    1.3710 H   0  0
   -2.5670   -0.6500    1.7890 H   0  0
   -6.0080   -3.2660   -0.0880 H   0  0
   -6.4670    0.8670   -1.4770 H   0  0
  1  2  1  0
  1  3  1  0
  2  4  1  0
  2  5  2  0
  3  6  2  0
  3  7  1  0
  4  8  1  0
  6  9  1  0
  7 10  2  0
  8 11  1  0
  9 12  2  0
 11 13  2  0
 11 14  1  0
 14 15  1  0
 14 16  1  0
 14 17  1  0
 16 18  1  0
 16 19  1  0
 16 20  1  0
 17 21  1  0
 18 22  1  0
 19 23  1  0
 24 22  1  0
 22 25  1  0
 23 26  1  0
 24 27  1  0
 25 28  1  0
 27 29  1  0
 27 30  1  0
 27 31  1  0
 29 32  2  0
 30 33  2  0
 32 34  1  0
 34 35  2  0
  5  7  1  0
 10 12  1  0
 18 21  1  0
 23 24  1  0
 28 29  1  0
 33 34  1  0
  8 36  1  0
  8 37  1  0
  9 38  1  0
 10 39  1  0
 12 40  1  0
 15 41  1  0
 17 42  1  0
 17 43  1  0
 18 44  1  0
 19 45  1  0
 19 46  1  0
 20 47  1  0
 20 48  1  0
 20 49  1  0
 21 50  1  0
 21 51  1  0
 22 52  1  0
 23 53  1  0
 24 54  1  0
 25 55  1  0
 25 56  1  0
 26 57  1  0
 28 58  1  0
 28 59  1  0
 30 60  1  0
 31 61  1  0
 31 62  1  0
 31 63  1  0
 32 64  1  0
 33 65  1  0
M  END
> <Name>
CHEMBL1940553

> <IC50 nM>
118

> <Molecule_ChEMBL_ID>
CHEMBL1940553

> <Smiles>
C[C@]12C=CC(=O)C=C1CC[C@@H]1[C@@H]2[C@@H](O)C[C@@]2(C)[C@H]1CC[C@]2(O)C(=O)CSc1nc2cccnc2s1

$$$$
CHEMBL204571
  SciTegic08162514323D

 56 59  0  0  0  0            999 V2000
   -0.9690   -1.4780   -1.0100 S   0  0
   -1.8540   -0.9720    0.4920 C   0  0
   -0.7560   -3.2400   -0.6250 C   0  0
   -2.1600    0.5040    0.4220 C   0  0
   -0.0330   -3.9080   -1.7400 C   0  0
   -1.0740    1.5280    0.4710 C   0  0
   -3.4430    0.8970    0.3110 C   0  0
    1.2990   -4.3240   -1.5660 C   0  0
   -0.6800   -4.1230   -2.9710 C   0  0
   -1.4060    2.9100    0.4000 C   0  0
    0.2830    1.1270    0.5900 C   0  0
   -3.8460    2.3600    0.2340 C   0  0
    1.9820   -4.9550   -2.6190 C   0  0
    0.0040   -4.7540   -4.0230 C   0  0
   -2.6970    3.3130    0.2870 N   0  0
   -0.3650    3.8750    0.4510 C   0  0
    1.3140    2.0940    0.6390 C   0  0
   -4.6000    2.5780   -1.0820 C   0  0
   -4.7790    2.6580    1.4100 C   0  0
    1.3360   -5.1700   -3.8480 C   0  0
    0.9820    3.4690    0.5700 C   0  0
    2.7070    1.6800    0.7620 C   0  0
    3.0940    0.7400    1.7420 C   0  0
    3.6700    2.2250   -0.1090 C   0  0
    2.2090    0.2150    2.5680 O   0  0
    4.4410    0.3560    1.8400 C   0  0
    5.0160    1.8340   -0.0020 C   0  0
    2.6410   -0.8240    3.4340 C   0  0
    5.4020    0.9010    0.9710 C   0  0
   -2.7790   -1.5410    0.5760 H   0  0
   -1.2340   -1.1810    1.3650 H   0  0
   -1.7340   -3.7050   -0.4980 H   0  0
   -0.1820   -3.3440    0.2950 H   0  0
   -4.2210    0.1470    0.2750 H   0  0
    1.8030   -4.1600   -0.6230 H   0  0
   -1.7030   -3.8070   -3.1110 H   0  0
    0.5330    0.0760    0.6430 H   0  0
    3.0060   -5.2730   -2.4840 H   0  0
   -0.4940   -4.9200   -4.9690 H   0  0
   -2.9140    4.2890    0.2340 H   0  0
   -0.5880    4.9320    0.3980 H   0  0
   -3.9690    2.3750   -1.9470 H   0  0
   -4.9510    3.6080   -1.1580 H   0  0
   -5.4690    1.9240   -1.1410 H   0  0
   -4.2830    2.5160    2.3690 H   0  0
   -5.6520    2.0060    1.3850 H   0  0
   -5.1350    3.6900    1.3690 H   0  0
    1.8610   -5.6540   -4.6580 H   0  0
    1.7560    4.2250    0.6050 H   0  0
    3.3910    2.9460   -0.8650 H   0  0
    4.7440   -0.3630    2.5880 H   0  0
    5.7540    2.2540   -0.6720 H   0  0
    1.7990   -1.1210    4.0590 H   0  0
    3.0920   -1.6090    2.8260 H   0  0
    3.4160   -0.4240    4.0880 H   0  0
    6.4360    0.6000    1.0530 H   0  0
  1  2  1  0
  1  3  1  0
  2  4  1  0
  3  5  1  0
  4  6  1  0
  4  7  2  0
  5  8  2  0
  5  9  1  0
  6 10  2  0
  6 11  1  0
  7 12  1  0
  8 13  1  0
  9 14  2  0
 10 15  1  0
 10 16  1  0
 11 17  2  0
 12 18  1  0
 12 19  1  0
 13 20  2  0
 16 21  2  0
 17 22  1  0
 22 23  2  0
 22 24  1  0
 23 25  1  0
 23 26  1  0
 24 27  2  0
 25 28  1  0
 26 29  2  0
 12 15  1  0
 14 20  1  0
 17 21  1  0
 27 29  1  0
  2 30  1  0
  2 31  1  0
  3 32  1  0
  3 33  1  0
  7 34  1  0
  8 35  1  0
  9 36  1  0
 11 37  1  0
 13 38  1  0
 14 39  1  0
 15 40  1  0
 16 41  1  0
 18 42  1  0
 18 43  1  0
 18 44  1  0
 19 45  1  0
 19 46  1  0
 19 47  1  0
 20 48  1  0
 21 49  1  0
 24 50  1  0
 26 51  1  0
 27 52  1  0
 28 53  1  0
 28 54  1  0
 28 55  1  0
 29 56  1  0
M  END
> <Name>
CHEMBL204571

> <IC50 nM>
2000

> <Molecule_ChEMBL_ID>
CHEMBL204571

> <Smiles>
COc1ccccc1-c1ccc2c(c1)C(CSCc1ccccc1)=CC(C)(C)N2

$$$$
CHEMBL1928874
  SciTegic08162514323D

 39 43  0  0  1  0            999 V2000
    3.9120    0.0140    0.5040 S   0  0
    3.8440   -1.6350    0.8420 C   0  0
    2.2230    0.5370    0.4300 C   0  0  2  0  0  0
    4.8830   -2.4730    0.9160 N   0  0
    2.7070   -2.3110    1.0820 N   0  0
    1.1620   -0.4900    0.8260 C   0  0
    2.0160    1.0570   -0.9530 C   0  0
    4.3570   -3.6780    1.2010 N   0  0
    1.4060   -1.7250    1.0980 N   0  0
    2.9980   -3.6270    1.3130 C   0  0
   -0.2460   -0.0510    0.9120 C   0  0
    2.0000    0.1760   -2.0530 C   0  0
    1.8340    2.4360   -1.1580 C   0  0
   -1.2830   -1.0120    0.9200 C   0  0
   -0.5490    1.3300    0.9840 C   0  0
    2.1700   -1.1330   -1.8750 F   0  0
    1.8030    0.6780   -3.3500 C   0  0
    1.6370    2.9360   -2.4550 C   0  0
   -2.6390   -0.5960    1.0020 C   0  0
   -1.8970    1.7500    1.0650 C   0  0
    1.6210    2.0570   -3.5530 C   0  0
   -3.6410   -1.5080    1.0290 N   0  0
   -2.9410    0.7970    1.0660 C   0  0
   -4.9610   -1.1270    0.9690 C   0  0
   -4.2210    1.2230    1.1450 O   0  0
   -5.8380   -1.9590    1.0290 O   0  0
   -5.3050    0.3420    0.8200 C   0  0
    2.1330    1.4080    1.0820 H   0  0
    2.3180   -4.4390    1.5330 H   0  0
    1.8440    3.1170   -0.3180 H   0  0
   -1.0370   -2.0620    0.8670 H   0  0
    0.2400    2.0660    0.9820 H   0  0
    1.7890    0.0080   -4.1970 H   0  0
    1.4960    3.9960   -2.6090 H   0  0
   -2.1270    2.8050    1.1230 H   0  0
    1.4690    2.4410   -4.5510 H   0  0
   -3.4280   -2.4840    1.1000 H   0  0
   -5.5920    0.5310   -0.2150 H   0  0
   -6.1580    0.6040    1.4450 H   0  0
  1  2  1  0
  1  3  1  0
  2  4  2  0
  2  5  1  0
  3  6  1  0
  3  7  1  0
  4  8  1  0
  5  9  1  0
  5 10  1  0
  6 11  1  0
  7 12  2  0
  7 13  1  0
 11 14  2  0
 11 15  1  0
 12 16  1  0
 12 17  1  0
 13 18  2  0
 14 19  1  0
 15 20  2  0
 17 21  2  0
 19 22  1  0
 19 23  2  0
 22 24  1  0
 23 25  1  0
 24 26  2  0
 24 27  1  0
  6  9  2  0
  8 10  2  0
 18 21  1  0
 20 23  1  0
 25 27  1  0
  3 28  1  0
 10 29  1  0
 13 30  1  0
 14 31  1  0
 15 32  1  0
 17 33  1  0
 18 34  1  0
 20 35  1  0
 21 36  1  0
 22 37  1  0
 27 38  1  0
 27 39  1  0
M  END
> <Name>
CHEMBL1928874

> <IC50 nM>
5500

> <Molecule_ChEMBL_ID>
CHEMBL1928874

> <Smiles>
O=C1COc2ccc(C3=Nn4cnnc4SC3c3ccccc3F)cc2N1

$$$$
CHEMBL1911542
  SciTegic08162514323D

 52 54  0  0  1  0            999 V2000
    5.8170   -2.2230   -2.1230 F   0  0
    5.1660   -1.2170   -1.5430 C   0  0
    3.9300   -1.4470   -0.9140 C   0  0
    5.7150    0.0760   -1.5610 C   0  0
    3.2420   -0.3850   -0.3010 C   0  0
    5.0270    1.1390   -0.9470 C   0  0
    3.7910    0.9120   -0.3160 C   0  0
    1.9360   -0.6410    0.3610 C   0  0
    3.1560    1.9160    0.2540 O   0  0
    1.1110   -0.0800   -0.7970 C   0  0
    1.7850    0.1800    1.6430 C   0  0
    1.7010   -2.1350    0.5860 C   0  0
    3.7600    3.2010    0.2070 C   0  0
   -0.3770   -0.4180   -0.6780 C   0  0  2  0  0  0
   -0.5390   -1.7950   -0.9340 O   0  0
   -1.0900    0.3590   -1.7850 C   0  0
   -0.9410   -0.1170    0.7110 C   0  0
   -1.1410    1.6870   -1.4490 F   0  0
   -2.3630   -0.1230   -1.9360 F   0  0
   -0.4020    0.2130   -2.9630 F   0  0
   -2.4530   -0.1470    0.7050 C   0  0
   -3.2540    1.0200    0.6310 N   0  0
   -3.3070   -1.2660    0.7700 C   0  0
   -4.5760    0.6050    0.6500 C   0  0
   -4.5610   -0.7640    0.7340 C   0  0
   -5.7910    1.3280    0.6000 C   0  0
   -5.7600   -1.5140    0.7730 C   0  0
   -7.0100    0.6030    0.6390 C   0  0
   -6.9940   -0.8150    0.7250 C   0  0
    3.5100   -2.4430   -0.9020 H   0  0
    6.6640    0.2580   -2.0430 H   0  0
    5.4510    2.1310   -0.9630 H   0  0
    1.5080   -0.4220   -1.7540 H   0  0
    1.2560    0.9960   -0.8890 H   0  0
    2.7420    0.3300    2.1450 H   0  0
    1.1170   -0.3200    2.3440 H   0  0
    1.3650    1.1620    1.4260 H   0  0
    2.5200   -2.5960    1.1410 H   0  0
    1.6080   -2.6560   -0.3650 H   0  0
    0.7830   -2.2990    1.1500 H   0  0
    4.6970    3.1580    0.7600 H   0  0
    3.8280    3.5080   -0.8380 H   0  0
    3.1020    3.9060    0.7170 H   0  0
   -1.2150   -2.1210   -0.3180 H   0  0
   -0.5980    0.8530    1.0650 H   0  0
   -0.5660   -0.8340    1.4410 H   0  0
   -2.9300    1.9570    0.5760 H   0  0
   -3.0120   -2.3050    0.8360 H   0  0
   -5.7910    2.4060    0.5310 H   0  0
   -5.7460   -2.5940    0.8400 H   0  0
   -7.9510    1.1330    0.6020 H   0  0
   -7.9240   -1.3630    0.7560 H   0  0
  1  2  1  0
  2  3  2  0
  2  4  1  0
  3  5  1  0
  4  6  2  0
  5  7  2  0
  5  8  1  0
  7  9  1  0
  8 10  1  0
  8 11  1  0
  8 12  1  0
  9 13  1  0
 10 14  1  0
 14 15  1  0
 14 16  1  0
 14 17  1  0
 16 18  1  0
 16 19  1  0
 16 20  1  0
 17 21  1  0
 21 22  1  0
 21 23  2  0
 22 24  1  0
 23 25  1  0
 24 26  1  0
 25 27  1  0
 26 28  2  0
 27 29  2  0
  6  7  1  0
 24 25  2  0
 28 29  1  0
  3 30  1  0
  4 31  1  0
  6 32  1  0
 10 33  1  0
 10 34  1  0
 11 35  1  0
 11 36  1  0
 11 37  1  0
 12 38  1  0
 12 39  1  0
 12 40  1  0
 13 41  1  0
 13 42  1  0
 13 43  1  0
 15 44  1  0
 17 45  1  0
 17 46  1  0
 22 47  1  0
 23 48  1  0
 26 49  1  0
 27 50  1  0
 28 51  1  0
 29 52  1  0
M  END
> <Name>
CHEMBL1911542

> <IC50 nM>
10

> <Molecule_ChEMBL_ID>
CHEMBL1911542

> <Smiles>
COc1ccc(F)cc1C(C)(C)C[C@@](O)(Cc1cc2ccccc2[nH]1)C(F)(F)F

$$$$
CHEMBL1911646
  SciTegic08162514323D

 52 54  0  0  1  0            999 V2000
    3.5660   -1.1370    4.7970 F   0  0
    2.4960   -0.8590    4.0550 C   0  0
    2.6520   -0.3560    2.7520 C   0  0
    1.2070   -1.0720    4.5740 C   0  0
    1.5220   -0.0630    1.9690 C   0  0
    0.0780   -0.7790    3.7910 C   0  0
    0.2310   -0.2730    2.4880 C   0  0
    1.6990    0.4710    0.5920 C   0  0
   -0.8380   -0.0040    1.7640 O   0  0
    1.3240   -0.8460   -0.0880 C   0  0
    3.1500    0.8790    0.3300 C   0  0
    0.7070    1.5960    0.2910 C   0  0
   -2.1020   -0.4220    2.2560 C   0  0
    1.7660   -0.9000   -1.5510 C   0  0  1  0  0  0
    3.1740   -0.8610   -1.5900 O   0  0
    1.3090   -2.2540   -2.0940 C   0  0
    1.2320    0.2730   -2.3730 C   0  0
    2.4020   -2.9830   -2.4840 F   0  0
    0.4810   -2.0610   -3.1700 F   0  0
    0.6330   -2.9360   -1.1130 F   0  0
   -0.2620    0.4370   -2.1890 C   0  0
   -0.9470    1.6560   -2.4260 N   0  0
   -1.2010   -0.5250   -1.7770 C   0  0
   -2.2850    1.4260   -2.1540 C   0  0
   -2.3930    0.1130   -1.7710 C   0  0
   -3.4160    2.2730   -2.2130 C   0  0
   -3.6430   -0.4530   -1.4220 C   0  0
   -4.6820    1.7340   -1.8670 C   0  0
   -4.7970    0.3730   -1.4730 C   0  0
   -5.9860   -0.1290   -1.1500 F   0  0
    3.6450   -0.1930    2.3540 H   0  0
    1.0820   -1.4590    5.5740 H   0  0
   -0.9100   -0.9430    4.1950 H   0  0
    0.2540   -1.0330   -0.0020 H   0  0
    1.7250   -1.6930    0.4670 H   0  0
    3.4980    1.6230    1.0450 H   0  0
    3.2560    1.3030   -0.6700 H   0  0
    3.8110    0.0160    0.3990 H   0  0
    0.5760    2.2600    1.1450 H   0  0
   -0.2690    1.1870    0.0330 H   0  0
    1.0490    2.1950   -0.5510 H   0  0
   -2.0590   -1.4960    2.4380 H   0  0
   -2.3590    0.2030    3.1110 H   0  0
   -2.8460   -0.2440    1.4790 H   0  0
    3.4280   -0.5140   -2.4590 H   0  0
    1.4550    0.1390   -3.4300 H   0  0
    1.7340    1.1990   -2.0940 H   0  0
   -0.5430    2.5120   -2.7280 H   0  0
   -1.0040   -1.5590   -1.5190 H   0  0
   -3.3200    3.3070   -2.5140 H   0  0
   -3.7210   -1.4900   -1.1230 H   0  0
   -5.5610    2.3630   -1.9040 H   0  0
  1  2  1  0
  2  3  2  0
  2  4  1  0
  3  5  1  0
  4  6  2  0
  5  7  2  0
  5  8  1  0
  7  9  1  0
  8 10  1  0
  8 11  1  0
  8 12  1  0
  9 13  1  0
 10 14  1  0
 14 15  1  0
 14 16  1  0
 14 17  1  0
 16 18  1  0
 16 19  1  0
 16 20  1  0
 17 21  1  0
 21 22  1  0
 21 23  2  0
 22 24  1  0
 23 25  1  0
 24 26  1  0
 25 27  1  0
 26 28  2  0
 27 29  2  0
 29 30  1  0
  6  7  1  0
 24 25  2  0
 28 29  1  0
  3 31  1  0
  4 32  1  0
  6 33  1  0
 10 34  1  0
 10 35  1  0
 11 36  1  0
 11 37  1  0
 11 38  1  0
 12 39  1  0
 12 40  1  0
 12 41  1  0
 13 42  1  0
 13 43  1  0
 13 44  1  0
 15 45  1  0
 17 46  1  0
 17 47  1  0
 22 48  1  0
 23 49  1  0
 26 50  1  0
 27 51  1  0
 28 52  1  0
M  END
> <Name>
CHEMBL1911646

> <IC50 nM>
24

> <Molecule_ChEMBL_ID>
CHEMBL1911646

> <Smiles>
COc1ccc(F)cc1C(C)(C)CC(O)(Cc1cc2cc(F)ccc2[nH]1)C(F)(F)F

$$$$
CHEMBL1911650
  SciTegic08162514323D

 53 55  0  0  1  0            999 V2000
   -3.0550   -3.9980   -3.5620 F   0  0
   -2.0900   -3.3830   -2.8830 C   0  0
   -2.4200   -2.4900   -1.8460 C   0  0
   -0.7420   -3.6270   -3.1970 C   0  0
   -1.4000   -1.8420   -1.1270 C   0  0
    0.2750   -2.9770   -2.4780 C   0  0
   -0.0490   -2.0840   -1.4410 C   0  0
   -1.7600   -0.8980   -0.0330 C   0  0
    0.9140   -1.4800   -0.7730 O   0  0
   -1.4340    0.3520   -0.8500 C   0  0
   -0.8420   -1.0660    1.1780 C   0  0
   -3.2400   -0.9980    0.3300 C   0  0
    2.2500   -1.9040   -1.0020 C   0  0
   -2.0450    1.6210   -0.2560 C   0  0  2  0  0  0
   -3.4490    1.5080   -0.3260 O   0  0
   -1.6130    2.7770   -1.1580 C   0  0
   -1.6540    1.8340    1.2070 C   0  0
   -2.7230    3.3710   -1.7010 F   0  0
   -0.8130    2.2990   -2.1620 F   0  0
   -0.9180    3.6970   -0.4180 F   0  0
   -0.1520    1.7340    1.3950 C   0  0
    0.4570    1.4300    2.6370 N   0  0
    0.8610    1.9100    0.4340 C   0  0
    1.8280    1.4240    2.4240 C   0  0
    2.0230    1.7150    1.0960 C   0  0
    2.9120    1.1860    3.3010 C   0  0
    3.3220    1.7890    0.5370 C   0  0
    4.2270    1.2520    2.7760 C   0  0
    4.4260    1.5530    1.3990 C   0  0
    5.7600    1.6190    0.8670 C   0  0
    6.8360    1.6720    0.4380 N   0  0
   -3.4550   -2.3050   -1.6050 H   0  0
   -0.4860   -4.3110   -3.9920 H   0  0
    1.3090   -3.1660   -2.7250 H   0  0
   -1.7420    0.2250   -1.8890 H   0  0
   -0.3570    0.4630   -0.9710 H   0  0
   -0.6210   -2.1150    1.3790 H   0  0
   -1.3030   -0.6460    2.0720 H   0  0
    0.1050   -0.5530    1.0200 H   0  0
   -3.5180   -2.0060    0.6410 H   0  0
   -3.8650   -0.7290   -0.5210 H   0  0
   -3.4820   -0.3180    1.1490 H   0  0
    2.9080   -1.3240   -0.3530 H   0  0
    2.2910   -2.9860   -0.8850 H   0  0
    2.5100   -1.6720   -2.0350 H   0  0
   -3.8160    2.0780    0.3670 H   0  0
   -2.1500    1.1070    1.8500 H   0  0
   -2.0000    2.8070    1.5590 H   0  0
   -0.0140    1.2560    3.4920 H   0  0
    0.7250    2.1500   -0.6150 H   0  0
    2.7420    0.9590    4.3400 H   0  0
    3.4610    2.0200   -0.5120 H   0  0
    5.0660    1.0720    3.4300 H   0  0
  1  2  1  0
  2  3  2  0
  2  4  1  0
  3  5  1  0
  4  6  2  0
  5  7  2  0
  5  8  1  0
  7  9  1  0
  8 10  1  0
  8 11  1  0
  8 12  1  0
  9 13  1  0
 10 14  1  0
 14 15  1  0
 14 16  1  0
 14 17  1  0
 16 18  1  0
 16 19  1  0
 16 20  1  0
 17 21  1  0
 21 22  1  0
 21 23  2  0
 22 24  1  0
 23 25  1  0
 24 26  1  0
 25 27  1  0
 26 28  2  0
 27 29  2  0
 29 30  1  0
 30 31  3  0
  6  7  1  0
 24 25  2  0
 28 29  1  0
  3 32  1  0
  4 33  1  0
  6 34  1  0
 10 35  1  0
 10 36  1  0
 11 37  1  0
 11 38  1  0
 11 39  1  0
 12 40  1  0
 12 41  1  0
 12 42  1  0
 13 43  1  0
 13 44  1  0
 13 45  1  0
 15 46  1  0
 17 47  1  0
 17 48  1  0
 22 49  1  0
 23 50  1  0
 26 51  1  0
 27 52  1  0
 28 53  1  0
M  END
> <Name>
CHEMBL1911650

> <IC50 nM>
1

> <Molecule_ChEMBL_ID>
CHEMBL1911650

> <Smiles>
COc1ccc(F)cc1C(C)(C)C[C@@](O)(Cc1cc2cc(C#N)ccc2[nH]1)C(F)(F)F

$$$$
CHEMBL1928882
  SciTegic08162514323D

 38 41  0  0  0  0            999 V2000
    2.9350    3.5800    3.4060 F   0  0
    2.6850    2.4860    2.6890 C   0  0
    1.3810    1.9650    2.6330 C   0  0
    3.7250    1.8500    1.9900 C   0  0
    1.1150    0.8110    1.8770 C   0  0
    3.4630    0.6950    1.2340 C   0  0
    2.1560    0.1720    1.1760 C   0  0
    1.9000   -0.9430    0.4450 N   0  0
    2.6620   -2.0450    0.4080 N   0  0
    0.8550   -1.1700   -0.3750 C   0  0
    2.1430   -2.9900   -0.4160 C   0  0
   -0.2770   -0.2670   -0.6900 C   0  0
    0.9510   -2.4490   -0.9490 C   0  0
    2.7750   -4.3420   -0.6620 C   0  0
   -1.5880   -0.7850   -0.6170 C   0  0
    0.0060    1.0650   -1.0470 C   0  0
   -2.6740    0.0820   -0.9160 C   0  0
   -1.0800    1.9240   -1.3400 C   0  0
   -3.9490   -0.3750   -0.8830 N   0  0
   -2.4140    1.4430   -1.2680 C   0  0
   -5.0200    0.4810   -1.0120 C   0  0
   -3.4280    2.2870   -1.5450 O   0  0
   -6.1490    0.0470   -1.0160 O   0  0
   -4.7680    1.9710   -1.1430 C   0  0
    0.5780    2.4510    3.1700 H   0  0
    4.7280    2.2460    2.0310 H   0  0
    0.1050    0.4260    1.8460 H   0  0
    4.2750    0.2210    0.7030 H   0  0
    0.2690   -2.9220   -1.6470 H   0  0
    3.6800   -4.4340   -0.0610 H   0  0
    2.0490   -5.1270   -0.4550 H   0  0
    3.0640   -4.4220   -1.7110 H   0  0
   -1.7520   -1.8180   -0.3420 H   0  0
    1.0210    1.4280   -1.0980 H   0  0
   -0.8910    2.9490   -1.6190 H   0  0
   -4.1290   -1.3530   -0.7660 H   0  0
   -5.4590    2.4200   -1.8560 H   0  0
   -4.9450    2.4420   -0.1760 H   0  0
  1  2  1  0
  2  3  2  0
  2  4  1  0
  3  5  1  0
  4  6  2  0
  5  7  2  0
  7  8  1  0
  8  9  1  0
  8 10  1  0
  9 11  2  0
 10 12  1  0
 10 13  2  0
 11 14  1  0
 12 15  2  0
 12 16  1  0
 15 17  1  0
 16 18  2  0
 17 19  1  0
 17 20  2  0
 19 21  1  0
 20 22  1  0
 21 23  2  0
 21 24  1  0
  6  7  1  0
 11 13  1  0
 18 20  1  0
 22 24  1  0
  3 25  1  0
  4 26  1  0
  5 27  1  0
  6 28  1  0
 13 29  1  0
 14 30  1  0
 14 31  1  0
 14 32  1  0
 15 33  1  0
 16 34  1  0
 18 35  1  0
 19 36  1  0
 24 37  1  0
 24 38  1  0
M  END
> <Name>
CHEMBL1928882

> <IC50 nM>
6900

> <Molecule_ChEMBL_ID>
CHEMBL1928882

> <Smiles>
Cc1cc(-c2ccc3c(c2)NC(=O)CO3)n(-c2ccc(F)cc2)n1

$$$$
CHEMBL5439877
  SciTegic08162514323D

 83 89  0  0  1  0            999 V2000
    2.8130   -0.2030   -0.9200 F   0  0
    2.9380   -1.4510   -1.4980 C   0  0  2  0  0  0
    4.4710   -1.7930   -1.4710 C   0  0  2  0  0  0
    2.3070   -1.2850   -2.9180 C   0  0  1  0  0  0
    2.1350   -2.4470   -0.6110 C   0  0  2  0  0  0
    4.9570   -1.8630   -0.0200 C   0  0
    5.2680   -0.8110   -2.3240 C   0  0
    4.7560   -3.1840   -2.0590 C   0  0
    2.6080   -2.3910   -3.7500 O   0  0
    0.7700   -1.0840   -2.8980 C   0  0
    0.6370   -2.0820   -0.6290 C   0  0  1  0  0  0
    2.6560   -2.4630    0.8400 C   0  0
    6.0310   -1.1680    0.4140 C   0  0
    4.1600   -2.7700    0.9080 C   0  0  2  0  0  0
    6.3280   -0.1250   -1.8610 C   0  0
    0.0490   -2.1480   -2.0470 C   0  0  1  0  0  0
   -0.3140   -2.9960    0.1500 C   0  0
    6.7870   -0.2830   -0.4780 C   0  0
    4.5610   -2.6620    2.2190 F   0  0
   -1.4670   -1.9630   -1.7830 C   0  0  1  0  0  0
    0.2250   -3.5570   -2.6370 C   0  0
   -1.6930   -2.6000   -0.3980 C   0  0  2  0  0  0
    7.7660    0.3070   -0.0820 O   0  0
   -1.8030   -0.6090   -1.5370 O   0  0
   -2.3890   -2.4800   -2.8650 C   0  0
   -2.2360   -1.5370    0.3690 O   0  0
   -2.7360   -0.5410   -0.4880 C   0  0  1  0  0  0
   -3.0660   -3.4670   -2.6880 O   0  0
   -2.4390   -1.7320   -4.1720 C   0  0
   -2.7360    0.7950    0.1600 C   0  0
   -1.6700   -2.4160   -5.1350 O   0  0
   -3.8910    1.5980    0.1210 C   0  0
   -1.5820    1.2620    0.8140 C   0  0
   -3.8910    2.8630    0.7340 C   0  0
   -1.5800    2.5250    1.4280 C   0  0
   -2.7340    3.3280    1.3870 C   0  0
   -2.7340    4.6660    2.0350 C   0  0
   -2.9710    4.5660    3.4710 N   0  0
   -4.3360    4.1060    3.7830 C   0  0
   -2.6070    5.7890    4.1970 C   0  0
   -4.6820    4.2150    5.2930 C   0  0
   -2.7710    5.6270    5.7340 C   0  0
   -3.4780    4.3950    6.1080 N   0  0
    2.7440   -0.4200   -3.4160 H   0  0
    2.2560   -3.4530   -1.0140 H   0  0
    4.9750   -0.6500   -3.3520 H   0  0
    5.7380   -3.5550   -1.7660 H   0  0
    4.7230   -3.1560   -3.1480 H   0  0
    4.0120   -3.9040   -1.7210 H   0  0
    2.3650   -2.1410   -4.6560 H   0  0
    0.5660   -0.0920   -2.4920 H   0  0
    0.3650   -1.0740   -3.9120 H   0  0
    0.5250   -1.0800   -0.2360 H   0  0
    2.4550   -1.5000    1.3160 H   0  0
    2.1150   -3.2090    1.4240 H   0  0
    6.3630   -1.2480    1.4390 H   0  0
    4.3200   -3.8030    0.5980 H   0  0
    6.8520    0.5490   -2.5230 H   0  0
   -0.1050   -4.0330   -0.0660 H   0  0
   -0.2260   -2.8710    1.2210 H   0  0
    1.2580   -3.8890   -2.5410 H   0  0
   -0.4260   -4.2720   -2.1290 H   0  0
   -0.0330   -3.5660   -3.6950 H   0  0
   -2.3930   -3.4240   -0.4080 H   0  0
   -3.7170   -0.8240   -0.8460 H   0  0
   -2.0160   -0.7360   -4.0430 H   0  0
   -3.4670   -1.6820   -4.5290 H   0  0
   -1.7320   -1.9120   -5.9610 H   0  0
   -4.7810    1.2460   -0.3810 H   0  0
   -0.6910    0.6500    0.8480 H   0  0
   -4.7790    3.4750    0.6990 H   0  0
   -0.6910    2.8770    1.9280 H   0  0
   -3.5060    5.2890    1.5820 H   0  0
   -1.7770    5.1560    1.8570 H   0  0
   -4.4340    3.0610    3.4610 H   0  0
   -5.0720    4.6760    3.2010 H   0  0
   -1.5700    6.0530    3.9630 H   0  0
   -3.2190    6.6270    3.8380 H   0  0
   -5.2110    3.3150    5.6290 H   0  0
   -5.3630    5.0570    5.4670 H   0  0
   -3.3160    6.4920    6.1350 H   0  0
   -1.7910    5.6190    6.2250 H   0  0
   -3.7300    4.4220    7.1080 H   0  0
  2  1  1  0
  2  3  1  0
  2  4  1  0
  2  5  1  0
  3  6  1  0
  3  7  1  0
  3  8  1  0
  4  9  1  0
  4 10  1  0
  5 11  1  0
  5 12  1  0
  6 13  2  0
  6 14  1  0
  7 15  2  0
 10 16  1  0
 11 17  1  0
 13 18  1  0
 14 19  1  0
 16 20  1  0
 16 21  1  0
 17 22  1  0
 18 23  2  0
 20 24  1  0
 20 25  1  0
 22 26  1  0
 24 27  1  0
 25 28  2  0
 25 29  1  0
 27 30  1  0
 29 31  1  0
 30 32  2  0
 30 33  1  0
 32 34  1  0
 33 35  2  0
 34 36  2  0
 36 37  1  0
 37 38  1  0
 38 39  1  0
 38 40  1  0
 39 41  1  0
 40 42  1  0
 41 43  1  0
 11 16  1  0
 12 14  1  0
 15 18  1  0
 20 22  1  0
 26 27  1  0
 35 36  1  0
 42 43  1  0
  4 44  1  0
  5 45  1  0
  7 46  1  0
  8 47  1  0
  8 48  1  0
  8 49  1  0
  9 50  1  0
 10 51  1  0
 10 52  1  0
 11 53  1  0
 12 54  1  0
 12 55  1  0
 13 56  1  0
 14 57  1  0
 15 58  1  0
 17 59  1  0
 17 60  1  0
 21 61  1  0
 21 62  1  0
 21 63  1  0
 22 64  1  0
 27 65  1  0
 29 66  1  0
 29 67  1  0
 31 68  1  0
 32 69  1  0
 33 70  1  0
 34 71  1  0
 35 72  1  0
 37 73  1  0
 37 74  1  0
 39 75  1  0
 39 76  1  0
 40 77  1  0
 40 78  1  0
 41 79  1  0
 41 80  1  0
 42 81  1  0
 42 82  1  0
 43 83  1  0
M  END
> <Name>
CHEMBL5439877

> <IC50 nM>
34

> <Molecule_ChEMBL_ID>
CHEMBL5439877

> <Smiles>
C[C@]12C=CC(=O)C=C1[C@@H](F)C[C@H]1[C@@H]3C[C@H]4O[C@@H](c5ccc(CN6CCNCC6)cc5)O[C@@]4(C(=O)CO)[C@@]3(C)C[C@H](O)[C@@]12F

$$$$
CHEMBL219140
  SciTegic08162514323D

 53 55  0  0  1  0            999 V2000
    2.2230   -4.4880   -4.0530 F   0  0
    1.2540   -4.0330   -3.2620 C   0  0
    1.5550   -3.1250   -2.2320 C   0  0
   -0.0700   -4.4570   -3.4570 C   0  0
    0.5310   -2.6410   -1.3960 C   0  0
   -1.0940   -3.9750   -2.6210 C   0  0
   -0.7970   -3.0670   -1.5900 C   0  0
    0.8630   -1.6820   -0.3100 C   0  0
   -1.7640   -2.6210   -0.8140 O   0  0
    0.3790   -0.4570   -1.0900 C   0  0
    2.3650   -1.6450   -0.0270 C   0  0
    0.0310   -1.9450    0.9470 C   0  0
   -3.1020   -2.9550   -1.1560 C   0  0
    0.7810    0.8610   -0.4280 C   0  0  1  0  0  0
    2.1520    1.0740   -0.6660 O   0  0
   -0.0060    1.9630   -1.1390 C   0  0
    0.5530    0.8550    1.0840 C   0  0
    0.1370    1.8220   -2.4960 F   0  0
    0.4730    3.1870   -0.7540 F   0  0
   -1.3320    1.8650   -0.8070 F   0  0
    0.6500    2.2230    1.6410 N   0  0
   -0.4670    2.9530    1.9570 C   0  0
    1.9240    2.7230    1.8240 C   0  0
   -0.3570    4.2850    2.5020 C   0  0
   -1.7680    2.3960    1.7480 C   0  0
    2.1430    3.9530    2.3220 C   0  0
   -1.5220    4.9770    2.8070 N   0  0
    1.0200    4.8300    2.7010 C   0  0
   -2.9220    3.1430    2.0740 C   0  0
   -2.7700    4.4370    2.6080 C   0  0
    1.3050    5.9200    3.1410 O   0  0
    2.5760   -2.7970   -2.0820 H   0  0
   -0.3070   -5.1560   -4.2460 H   0  0
   -2.1090   -4.3050   -2.7750 H   0  0
   -0.6990   -0.5000   -1.2420 H   0  0
    0.7320   -0.4940   -2.1210 H   0  0
    2.7770   -2.6450    0.1000 H   0  0
    2.5720   -1.0800    0.8810 H   0  0
    2.8980   -1.1660   -0.8480 H   0  0
   -0.1660   -3.0080    1.0860 H   0  0
   -0.9280   -1.4320    0.8890 H   0  0
    0.5510   -1.5840    1.8340 H   0  0
   -3.7660   -2.5020   -0.4200 H   0  0
   -3.2680   -2.6700   -2.1950 H   0  0
   -3.2130   -4.0350   -1.0840 H   0  0
    2.6310    0.7640    0.1190 H   0  0
    1.2790    0.2130    1.5800 H   0  0
   -0.4260    0.4390    1.3240 H   0  0
    2.7950    2.1330    1.5700 H   0  0
   -1.9060    1.4060    1.3400 H   0  0
    3.1580    4.3010    2.4470 H   0  0
   -3.9060    2.7270    1.9180 H   0  0
   -3.6450    5.0160    2.8630 H   0  0
  1  2  1  0
  2  3  2  0
  2  4  1  0
  3  5  1  0
  4  6  2  0
  5  7  2  0
  5  8  1  0
  7  9  1  0
  8 10  1  0
  8 11  1  0
  8 12  1  0
  9 13  1  0
 10 14  1  0
 14 15  1  0
 14 16  1  0
 14 17  1  0
 16 18  1  0
 16 19  1  0
 16 20  1  0
 17 21  1  0
 21 22  1  0
 21 23  1  0
 22 24  2  0
 22 25  1  0
 23 26  2  0
 24 27  1  0
 24 28  1  0
 25 29  2  0
 27 30  2  0
 28 31  2  0
  6  7  1  0
 26 28  1  0
 29 30  1  0
  3 32  1  0
  4 33  1  0
  6 34  1  0
 10 35  1  0
 10 36  1  0
 11 37  1  0
 11 38  1  0
 11 39  1  0
 12 40  1  0
 12 41  1  0
 12 42  1  0
 13 43  1  0
 13 44  1  0
 13 45  1  0
 15 46  1  0
 17 47  1  0
 17 48  1  0
 23 49  1  0
 25 50  1  0
 26 51  1  0
 29 52  1  0
 30 53  1  0
M  END
> <Name>
CHEMBL219140

> <IC50 nM>
77

> <Molecule_ChEMBL_ID>
CHEMBL219140

> <Smiles>
COc1ccc(F)cc1C(C)(C)CC(O)(Cn1ccc(=O)c2ncccc21)C(F)(F)F

$$$$
CHEMBL1085593
  SciTegic08162514323D

 47 49  0  0  1  0            999 V2000
   -4.0430    3.9730    1.3440 F   0  0
   -3.3070    3.2750    0.4240 C   0  0
   -4.1060    2.9320   -0.6370 F   0  0
   -2.2720    4.0570   -0.0210 F   0  0
   -2.7600    2.0370    1.0570 C   0  0
   -3.6060    1.0410    1.5920 C   0  0
   -1.3580    1.8730    1.1130 C   0  0
   -5.0310    1.2170    1.5270 C   0  0
   -3.0630   -0.1090    2.1800 C   0  0
   -0.8180    0.7190    1.7030 C   0  0
   -6.1840    1.3610    1.4770 N   0  0
   -1.6680   -0.2660    2.2350 C   0  0
    0.4900    0.5780    1.7500 O   0  0
    1.0210   -0.7400    1.7010 C   0  0  1  0  0  0
    0.5430   -1.3930    0.4300 C   0  0
    2.5640   -0.7010    1.6080 C   0  0
   -0.5450   -1.8710    0.2070 O   0  0
    1.6030   -1.3550   -0.4740 N   0  0
    2.7910   -0.7300    0.0860 C   0  0
    3.2010    0.5250    2.2580 C   0  0
    3.1170   -1.9920    2.2150 C   0  0
    1.5510   -1.8790   -1.8360 C   0  0
    0.6680   -1.0550   -2.7050 C   0  0
   -0.6310   -1.4980   -3.0100 C   0  0
    1.1350    0.1660   -3.2250 C   0  0
   -1.4650   -0.7190   -3.8320 C   0  0
    0.3010    0.9450   -4.0470 C   0  0
   -0.9980    0.5020   -4.3500 C   0  0
   -0.7090    2.6410    0.6990 H   0  0
   -3.6860   -0.8650    2.5880 H   0  0
   -1.2380   -1.1410    2.6820 H   0  0
    0.6700   -1.2750    2.5700 H   0  0
    3.6820   -1.2770   -0.1930 H   0  0
    2.8770    0.2680   -0.3180 H   0  0
    4.2870    0.5120    2.1720 H   0  0
    2.9510    0.5700    3.3190 H   0  0
    2.8400    1.4400    1.7910 H   0  0
    4.1990   -2.0430    2.0880 H   0  0
    2.8810   -2.0510    3.2780 H   0  0
    2.6840   -2.8630    1.7270 H   0  0
    1.1830   -2.9060   -1.8160 H   0  0
    2.5570   -1.9020   -2.2560 H   0  0
   -0.9940   -2.4360   -2.6150 H   0  0
    2.1310    0.5120   -2.9940 H   0  0
   -2.4630   -1.0590   -4.0660 H   0  0
    0.6580    1.8830   -4.4430 H   0  0
   -1.6390    1.1000   -4.9820 H   0  0
  1  2  1  0
  2  3  1  0
  2  4  1  0
  2  5  1  0
  5  6  2  0
  5  7  1  0
  6  8  1  0
  6  9  1  0
  7 10  2  0
  8 11  3  0
  9 12  2  0
 10 13  1  0
 14 13  1  0
 14 15  1  0
 14 16  1  0
 15 17  2  0
 15 18  1  0
 16 19  1  0
 16 20  1  0
 16 21  1  0
 18 22  1  0
 22 23  1  0
 23 24  2  0
 23 25  1  0
 24 26  1  0
 25 27  2  0
 26 28  2  0
 10 12  1  0
 18 19  1  0
 27 28  1  0
  7 29  1  0
  9 30  1  0
 12 31  1  0
 14 32  1  0
 19 33  1  0
 19 34  1  0
 20 35  1  0
 20 36  1  0
 20 37  1  0
 21 38  1  0
 21 39  1  0
 21 40  1  0
 22 41  1  0
 22 42  1  0
 24 43  1  0
 25 44  1  0
 26 45  1  0
 27 46  1  0
 28 47  1  0
M  END
> <Name>
CHEMBL1085593

> <IC50 nM>
10000

> <Molecule_ChEMBL_ID>
CHEMBL1085593

> <Smiles>
CC1(C)CN(Cc2ccccc2)C(=O)[C@@H]1Oc1ccc(C#N)c(C(F)(F)F)c1

$$$$
CHEMBL2419300
  SciTegic08162514323D

 40 43  0  0  1  0            999 V2000
   -0.5270   -4.1450    1.8280 Cl  0  0
   -0.7050   -2.7130    0.8970 C   0  0
   -1.9940   -2.2030    0.5900 C   0  0
    0.4510   -2.0410    0.4340 C   0  0
   -3.0960   -2.8500    1.0310 O   0  0
   -2.1230   -1.0020   -0.1720 C   0  0
    0.3220   -0.8590   -0.3340 C   0  0
   -4.3750   -2.5960    0.4380 C   0  0
   -3.3520   -0.4980   -0.4390 N   0  0
   -0.9570   -0.3400   -0.6370 C   0  0
    1.5310   -0.1640   -0.8200 C   0  0
   -4.4980   -1.2010   -0.1460 C   0  0
    1.8770    1.1040   -0.5470 C   0  0
    2.5700   -0.8050   -1.7190 C   0  0  1  0  0  0
   -5.5840   -0.7170   -0.3570 O   0  0
    1.1110    2.0610    0.3150 C   0  0
    3.1270    1.4200   -1.2250 C   0  0
    3.5390    0.2810   -1.9300 N   0  0
    3.2210   -2.0290   -1.0880 C   0  0
    0.3980    1.5880    1.4300 C   0  0
    1.1070    3.4340    0.0080 C   0  0
    3.7360    2.4650   -1.2090 O   0  0
   -0.3200    2.4860    2.2380 C   0  0
    0.3890    4.3320    0.8160 C   0  0
   -0.3240    3.8590    1.9320 C   0  0
   -1.0040    4.7110    2.6970 F   0  0
    1.4350   -2.4260    0.6600 H   0  0
   -5.1470   -2.7720    1.1880 H   0  0
   -4.5260   -3.3240   -0.3590 H   0  0
   -3.4440    0.4100   -0.8550 H   0  0
   -1.0370    0.5680   -1.2210 H   0  0
    2.1230   -1.0680   -2.6680 H   0  0
    4.3650    0.2150   -2.4880 H   0  0
    4.1070   -2.3280   -1.6460 H   0  0
    3.5040   -1.8260   -0.0550 H   0  0
    2.5290   -2.8730   -1.0840 H   0  0
    0.3960    0.5350    1.6740 H   0  0
    1.6520    3.8070   -0.8480 H   0  0
   -0.8650    2.1190    3.0940 H   0  0
    0.3890    5.3850    0.5780 H   0  0
  1  2  1  0
  2  3  2  0
  2  4  1  0
  3  5  1  0
  3  6  1  0
  4  7  2  0
  5  8  1  0
  6  9  1  0
  6 10  2  0
  7 11  1  0
  8 12  1  0
 11 13  2  0
 11 14  1  0
 12 15  2  0
 13 16  1  0
 13 17  1  0
 14 18  1  0
 14 19  1  0
 16 20  2  0
 16 21  1  0
 17 22  2  0
 20 23  1  0
 21 24  2  0
 23 25  2  0
 25 26  1  0
  7 10  1  0
  9 12  1  0
 17 18  1  0
 24 25  1  0
  4 27  1  0
  8 28  1  0
  8 29  1  0
  9 30  1  0
 10 31  1  0
 14 32  1  0
 18 33  1  0
 19 34  1  0
 19 35  1  0
 19 36  1  0
 20 37  1  0
 21 38  1  0
 23 39  1  0
 24 40  1  0
M  END
> <Name>
CHEMBL2419300

> <IC50 nM>
1100

> <Molecule_ChEMBL_ID>
CHEMBL2419300

> <Smiles>
CC1NC(=O)C(c2ccc(F)cc2)=C1c1cc(Cl)c2c(c1)NC(=O)CO2

$$$$
CHEMBL2419304
  SciTegic08162514323D

 39 42  0  0  0  0            999 V2000
   -0.7380   -3.7420   -3.1170 F   0  0
   -0.0200   -2.8810   -2.4000 C   0  0
    0.8160   -3.3440   -1.3710 C   0  0
   -0.0980   -1.5060   -2.6760 C   0  0
    1.5780   -2.4360   -0.6150 C   0  0
    0.6600   -0.5940   -1.9220 C   0  0
    1.4980   -1.0550   -0.8910 C   0  0
    2.4570   -2.9470    0.4710 C   0  0
    2.2990   -0.0700   -0.0980 C   0  0
    3.7420   -0.1130    0.0920 C   0  0
    1.8280    0.9940    0.5570 C   0  0
    4.4610   -0.9610   -0.3810 O   0  0
    4.1390    0.9140    0.8550 O   0  0
    0.4180    1.4340    0.6430 C   0  0
    2.9880    1.6990    1.2150 C   0  0
   -0.6190    0.4730    0.6520 C   0  0
    0.1150    2.8130    0.7170 C   0  0
   -1.9750    0.8890    0.7340 C   0  0
   -1.2330    3.2340    0.7970 C   0  0
   -2.9770   -0.0230    0.7620 N   0  0
   -2.2780    2.2790    0.7990 C   0  0
   -4.2970    0.3560    0.7010 C   0  0
   -3.5570    2.7070    0.8750 O   0  0
   -5.1740   -0.4750    0.7620 O   0  0
   -4.6410    1.8260    0.5510 C   0  0
    0.8750   -4.4040   -1.1620 H   0  0
   -0.7400   -1.1430   -3.4670 H   0  0
    0.5940    0.4630   -2.1410 H   0  0
    2.0370   -3.8690    0.8750 H   0  0
    3.4690   -3.0800    0.0860 H   0  0
    2.5000   -2.2190    1.2790 H   0  0
    2.8850    1.7170    2.2910 H   0  0
    3.1070    2.7050    0.8380 H   0  0
   -0.3730   -0.5800    0.5980 H   0  0
    0.9040    3.5490    0.7130 H   0  0
   -1.4630    4.2870    0.8540 H   0  0
   -2.7640   -1.0020    0.8320 H   0  0
   -4.9280    2.0160   -0.4840 H   0  0
   -5.4940    2.0880    1.1780 H   0  0
  1  2  1  0
  2  3  2  0
  2  4  1  0
  3  5  1  0
  4  6  2  0
  5  7  2  0
  5  8  1  0
  7  9  1  0
  9 10  1  0
  9 11  2  0
 10 12  2  0
 10 13  1  0
 11 14  1  0
 11 15  1  0
 14 16  2  0
 14 17  1  0
 16 18  1  0
 17 19  2  0
 18 20  1  0
 18 21  2  0
 20 22  1  0
 21 23  1  0
 22 24  2  0
 22 25  1  0
  6  7  1  0
 13 15  1  0
 19 21  1  0
 23 25  1  0
  3 26  1  0
  4 27  1  0
  6 28  1  0
  8 29  1  0
  8 30  1  0
  8 31  1  0
 15 32  1  0
 15 33  1  0
 16 34  1  0
 17 35  1  0
 19 36  1  0
 20 37  1  0
 25 38  1  0
 25 39  1  0
M  END
> <Name>
CHEMBL2419304

> <IC50 nM>
10000

> <Molecule_ChEMBL_ID>
CHEMBL2419304

> <Smiles>
Cc1cc(F)ccc1C1=C(c2ccc3c(c2)NC(=O)CO3)COC1=O

$$$$
CHEMBL1254821
  SciTegic08162514323D

 52 54  0  0  1  0            999 V2000
    3.9730   -2.7150    3.7300 F   0  0
    2.8320   -2.3220    3.1660 C   0  0
    2.8190   -1.1990    2.3200 C   0  0
    1.6450   -3.0270    3.4160 C   0  0
    1.6150   -0.7810    1.7250 C   0  0
    0.4420   -2.6110    2.8200 C   0  0
    0.4220   -1.4880    1.9730 C   0  0
    1.6110    0.4080    0.8300 C   0  0
   -0.7130   -1.1070    1.4200 O   0  0
    1.4590   -0.4140   -0.4490 C   0  0
    2.9380    1.1640    0.8950 C   0  0
    0.4040    1.3110    1.1000 C   0  0
   -1.8630   -1.9080    1.6370 C   0  0
    1.8170    0.3810   -1.7070 C   0  0  1  0  0  0
    3.1880    0.7010   -1.6490 O   0  0
    1.5940   -0.5570   -2.8930 C   0  0
    1.0260    1.6840   -1.8260 C   0  0
    2.7770   -0.7380   -3.5610 F   0  0
    0.6680   -0.0060   -3.7420 F   0  0
    1.1350   -1.7680   -2.4400 F   0  0
   -0.4590    1.4400   -1.6580 C   0  0
   -1.3750    2.4490   -1.2700 N   0  0
   -1.1760    0.2420   -1.8460 C   0  0
   -2.6290    1.8630   -1.2230 C   0  0
   -2.4630    0.5470   -1.5720 C   0  0
   -3.9000    2.3890   -0.8980 C   0  0
   -3.5600   -0.3460   -1.6250 C   0  0
   -5.0210    1.5180   -0.9430 N   0  3
   -4.8500    0.1520   -1.3050 C   0  0
   -6.2600    1.9880   -0.6390 O   0  5
    3.7330   -0.6560    2.1290 H   0  0
    1.6510   -3.8910    4.0640 H   0  0
   -0.4710   -3.1560    3.0140 H   0  0
    0.4510   -0.8240   -0.5270 H   0  0
    2.0470   -1.3300   -0.3930 H   0  0
    3.1720    1.4900    1.9060 H   0  0
    2.9080    2.0470    0.2580 H   0  0
    3.7580    0.5310    0.5490 H   0  0
    0.2030    1.4120    2.1660 H   0  0
   -0.4900    0.9060    0.6290 H   0  0
    0.5720    2.3090    0.6950 H   0  0
   -1.6760   -2.8960    1.2170 H   0  0
   -2.1070   -1.8750    2.6990 H   0  0
   -2.6970   -1.4670    1.0900 H   0  0
    3.3560    1.3670   -2.3340 H   0  0
    1.2090    2.1580   -2.7890 H   0  0
    1.3610    2.4080   -1.0840 H   0  0
   -1.1560    3.3990   -1.0660 H   0  0
   -0.7710   -0.7170   -2.1450 H   0  0
   -4.0180    3.4260   -0.6250 H   0  0
   -3.4280   -1.3830   -1.9000 H   0  0
   -5.7030   -0.5100   -1.3380 H   0  0
  1  2  1  0
  2  3  2  0
  2  4  1  0
  3  5  1  0
  4  6  2  0
  5  7  2  0
  5  8  1  0
  7  9  1  0
  8 10  1  0
  8 11  1  0
  8 12  1  0
  9 13  1  0
 10 14  1  0
 14 15  1  0
 14 16  1  0
 14 17  1  0
 16 18  1  0
 16 19  1  0
 16 20  1  0
 17 21  1  0
 21 22  1  0
 21 23  2  0
 22 24  1  0
 23 25  1  0
 24 26  1  0
 25 27  1  0
 26 28  2  0
 27 29  2  0
 28 30  1  0
  6  7  1  0
 24 25  2  0
 28 29  1  0
  3 31  1  0
  4 32  1  0
  6 33  1  0
 10 34  1  0
 10 35  1  0
 11 36  1  0
 11 37  1  0
 11 38  1  0
 12 39  1  0
 12 40  1  0
 12 41  1  0
 13 42  1  0
 13 43  1  0
 13 44  1  0
 15 45  1  0
 17 46  1  0
 17 47  1  0
 22 48  1  0
 23 49  1  0
 26 50  1  0
 27 51  1  0
 29 52  1  0
M  CHG  2  28   1  30  -1
M  END
> <Name>
CHEMBL1254821

> <IC50 nM>
860

> <Molecule_ChEMBL_ID>
CHEMBL1254821

> <Smiles>
COc1ccc(F)cc1C(C)(C)CC(O)(Cc1cc2cc[n+]([O-])cc2[nH]1)C(F)(F)F

$$$$
CHEMBL1254906
  SciTegic08162514323D

 50 52  0  0  1  0            999 V2000
   -5.5740    1.2620   -2.9980 F   0  0
   -4.9260    0.9630   -1.8750 C   0  0
   -3.7010    0.2740   -1.9320 C   0  0
   -5.4630    1.3360   -0.6310 C   0  0
   -3.0160   -0.0430   -0.7460 C   0  0
   -4.7770    1.0200    0.5530 C   0  0
   -3.5530    0.3300    0.5020 C   0  0
   -1.7210   -0.7710   -0.8190 C   0  0
   -2.9180    0.0390    1.6190 O   0  0
   -0.8710    0.4980   -0.7270 C   0  0
   -1.5570   -1.4960   -2.1550 C   0  0
   -1.5270   -1.6970    0.3830 C   0  0
   -3.4100    0.5960    2.8300 C   0  0
    0.6250    0.1990   -0.6370 C   0  0  1  0  0  0
    0.8460   -1.1070   -1.1150 O   0  0
    1.3220    1.1800   -1.5820 C   0  0
    1.1580    0.2810    0.7950 C   0  0
    2.6560    0.8730   -1.6560 F   0  0
    1.1720    2.4570   -1.1080 F   0  0
    0.7620    1.0860   -2.8300 F   0  0
    2.6660    0.1580    0.8260 C   0  0
    3.5290    1.2910    0.9280 O   0  0
    3.4220   -1.0390    0.7600 C   0  0
    4.7870    0.7250    0.9200 C   0  0
    4.7110   -0.6350    0.8220 C   0  0
    6.0390    1.3580    0.9960 C   0  0
    5.8970   -1.4220    0.7970 C   0  0
    7.2270    0.6540    0.9740 N   0  0
    7.1500   -0.7360    0.8750 C   0  0
   -3.2890   -0.0120   -2.8890 H   0  0
   -6.4040    1.8650   -0.5820 H   0  0
   -5.1930    1.3070    1.5080 H   0  0
   -1.1930    1.1150    0.1110 H   0  0
   -1.0820    1.1640   -1.5630 H   0  0
   -2.5000   -1.9040   -2.5140 H   0  0
   -0.8500   -2.3200   -2.0630 H   0  0
   -1.1760   -0.8160   -2.9180 H   0  0
   -2.4650   -2.1660    0.6870 H   0  0
   -1.1370   -1.1460    1.2360 H   0  0
   -0.8200   -2.4920    0.1460 H   0  0
   -3.4140    1.6800    2.7300 H   0  0
   -4.3690    0.1270    3.0550 H   0  0
   -2.7190    0.3360    3.6310 H   0  0
    1.0370   -1.6660   -0.3460 H   0  0
    0.7170   -0.4980    1.4140 H   0  0
    0.8610    1.2190    1.2630 H   0  0
    3.0470   -2.0510    0.6800 H   0  0
    6.0740    2.4340    1.0720 H   0  0
    5.8570   -2.4980    0.7210 H   0  0
    8.0650   -1.3100    0.8550 H   0  0
  1  2  1  0
  2  3  2  0
  2  4  1  0
  3  5  1  0
  4  6  2  0
  5  7  2  0
  5  8  1  0
  7  9  1  0
  8 10  1  0
  8 11  1  0
  8 12  1  0
  9 13  1  0
 10 14  1  0
 14 15  1  0
 14 16  1  0
 14 17  1  0
 16 18  1  0
 16 19  1  0
 16 20  1  0
 17 21  1  0
 21 22  1  0
 21 23  2  0
 22 24  1  0
 23 25  1  0
 24 26  1  0
 25 27  1  0
 26 28  2  0
 27 29  2  0
  6  7  1  0
 24 25  2  0
 28 29  1  0
  3 30  1  0
  4 31  1  0
  6 32  1  0
 10 33  1  0
 10 34  1  0
 11 35  1  0
 11 36  1  0
 11 37  1  0
 12 38  1  0
 12 39  1  0
 12 40  1  0
 13 41  1  0
 13 42  1  0
 13 43  1  0
 15 44  1  0
 17 45  1  0
 17 46  1  0
 23 47  1  0
 26 48  1  0
 27 49  1  0
 29 50  1  0
M  END
> <Name>
CHEMBL1254906

> <IC50 nM>
2000

> <Molecule_ChEMBL_ID>
CHEMBL1254906

> <Smiles>
COc1ccc(F)cc1C(C)(C)CC(O)(Cc1cc2ccncc2o1)C(F)(F)F

$$$$
CHEMBL304966
  SciTegic08162514323D

 54 56  0  0  0  0            999 V2000
   -1.8050   -2.1110   -3.3570 S   0  0
   -1.4420   -0.9750   -4.1860 O   0  0
   -0.8930   -3.2340   -3.4940 O   0  0
   -1.7540   -1.6250   -1.8140 N   0  0
   -3.4510   -2.6480   -3.8070 C   0  0
   -0.6370   -0.9900   -1.3320 C   0  0
   -0.6540   -0.3240   -0.0820 C   0  0
    0.5410   -1.0060   -2.1020 C   0  0
    0.5150    0.3180    0.3830 C   0  0
   -1.9030   -0.3050    0.7420 C   0  0
    1.6990   -0.3650   -1.6370 C   0  0
    0.5370    0.9750    1.5880 N   0  0
    1.6870    0.2950   -0.3980 C   0  0
    2.9390   -0.3870   -2.4570 C   0  0
    0.3830    0.2380    2.8520 C   0  0
    0.7170    2.4320    1.6310 C   0  0
    1.1720   -1.0210    2.8520 C   0  0
   -0.2090    3.1250    0.6970 C   0  0
    0.5130   -2.2640    2.8520 C   0  0
    2.5780   -0.9710    2.8520 C   0  0
    0.2220    3.4690   -0.5980 C   0  0
   -1.5200    3.4360    1.1060 C   0  0
    1.2620   -3.4550    2.8520 C   0  0
    3.3240   -2.1620    2.8520 C   0  0
   -0.6540    4.1230   -1.4800 C   0  0
   -2.3950    4.0900    0.2230 C   0  0
    2.6660   -3.4040    2.8520 C   0  0
   -1.9630    4.4340   -1.0700 C   0  0
   -2.5350   -1.7890   -1.2110 H   0  0
   -3.5470   -2.9880   -4.8380 H   0  0
   -4.1550   -1.8280   -3.6580 H   0  0
   -3.7560   -3.4690   -3.1540 H   0  0
    0.5660   -1.5120   -3.0590 H   0  0
   -2.8240   -0.3070    0.1600 H   0  0
   -1.9080    0.5860    1.3710 H   0  0
   -1.9200   -1.1740    1.3990 H   0  0
    2.5900    0.7850   -0.0550 H   0  0
    2.7640   -0.9610   -3.3670 H   0  0
    3.2600    0.6370   -2.6580 H   0  0
    3.7340   -0.8810   -1.8980 H   0  0
   -0.6720    0.0060    3.0040 H   0  0
    0.7090    0.8710    3.6780 H   0  0
    1.7460    2.6740    1.3670 H   0  0
    0.5410    2.7850    2.6470 H   0  0
   -0.5650   -2.3110    2.8520 H   0  0
    3.0900   -0.0190    2.8520 H   0  0
    1.2260    3.2330   -0.9180 H   0  0
   -1.8580    3.1740    2.0980 H   0  0
    0.7560   -4.4100    2.8520 H   0  0
    4.4040   -2.1230    2.8520 H   0  0
   -0.3220    4.3890   -2.4730 H   0  0
   -3.4010    4.3280    0.5370 H   0  0
    3.2400   -4.3200    2.8520 H   0  0
   -2.6370    4.9380   -1.7480 H   0  0
  1  2  2  0
  1  3  2  0
  1  4  1  0
  1  5  1  0
  4  6  1  0
  6  7  2  0
  6  8  1  0
  7  9  1  0
  7 10  1  0
  8 11  2  0
  9 12  1  0
  9 13  2  0
 11 14  1  0
 12 15  1  0
 12 16  1  0
 15 17  1  0
 16 18  1  0
 17 19  2  0
 17 20  1  0
 18 21  2  0
 18 22  1  0
 19 23  1  0
 20 24  2  0
 21 25  1  0
 22 26  2  0
 23 27  2  0
 25 28  2  0
 11 13  1  0
 24 27  1  0
 26 28  1  0
  4 29  1  0
  5 30  1  0
  5 31  1  0
  5 32  1  0
  8 33  1  0
 10 34  1  0
 10 35  1  0
 10 36  1  0
 13 37  1  0
 14 38  1  0
 14 39  1  0
 14 40  1  0
 15 41  1  0
 15 42  1  0
 16 43  1  0
 16 44  1  0
 19 45  1  0
 20 46  1  0
 21 47  1  0
 22 48  1  0
 23 49  1  0
 24 50  1  0
 25 51  1  0
 26 52  1  0
 27 53  1  0
 28 54  1  0
M  END
> <Name>
CHEMBL304966

> <IC50 nM>
1100

> <Molecule_ChEMBL_ID>
CHEMBL304966

> <Smiles>
Cc1cc(NS(C)(=O)=O)c(C)c(N(Cc2ccccc2)Cc2ccccc2)c1

$$$$
CHEMBL1917416
  SciTegic08162514323D

 74 79  0  0  1  0            999 V2000
   -3.1580   -1.4360   -1.7540 S   0  0
   -4.5290   -2.4140   -1.6290 C   0  0
   -3.6130   -0.0210   -0.8280 C   0  0
   -4.5410   -3.5920   -2.3240 N   0  0
   -5.5570   -1.9800   -0.8400 N   0  0
   -2.4570    0.9390   -0.7790 C   0  0
   -5.6470   -4.3890   -2.2280 C   0  0
   -6.6680   -2.7700   -0.7360 C   0  0
   -2.4570    1.9470   -1.4490 O   0  0
   -1.2970    0.6110    0.1290 C   0  0  2  0  0  0
   -6.7400   -3.9960   -1.4300 C   0  0
   -5.6900   -5.6740   -2.9710 C   0  0
   -1.1740    1.6820    1.0570 O   0  0
    0.0470    0.4020   -0.5920 C   0  0  2  0  0  0
   -1.4750   -0.7130    0.9040 C   0  0
   -2.2870    1.8750    1.7580 C   0  0
    0.8260   -0.2300    0.5700 C   0  0  1  0  0  0
    0.7990    1.6330   -1.1370 C   0  0
   -0.1860   -0.6050   -1.7340 C   0  0
   -0.0900   -1.3710    0.9960 C   0  0
   -3.2440    1.1390    1.7170 O   0  0
   -2.3090    3.0550    2.6110 C   0  0
    2.2640   -0.4590    0.0900 C   0  0  1  0  0  0
    2.0530    2.0760   -0.3380 C   0  0  1  0  0  0
   -1.1970    3.8400    2.6410 O   0  0
   -3.3360    3.5160    3.4380 C   0  0
    2.9820    0.9160    0.1990 C   0  0  2  0  0  0
    2.9840   -1.5410    0.8910 C   0  0
    2.7250    3.0220   -1.1460 O   0  0
   -1.5350    4.8340    3.5140 C   0  0
   -2.8300    4.6760    4.0240 C   0  0
    4.4790    0.8280   -0.2710 C   0  0  2  0  0  0
    4.3930   -1.7300    0.3320 C   0  0
    5.1600   -0.4240    0.3170 C   0  0
    5.2640    2.0960    0.0920 C   0  0
    4.5330    0.6780   -1.7950 C   0  0
    6.4120   -0.4060    0.8220 C   0  0
    6.5080    2.0860    0.6040 C   0  0
    7.1860    0.8300    0.9160 C   0  0
    8.3480    0.8160    1.2540 O   0  0
   -3.8890   -0.3220    0.1840 H   0  0
   -4.4750    0.4570   -1.2950 H   0  0
   -7.4960   -2.4510   -0.1190 H   0  0
   -7.6190   -4.6190   -1.3460 H   0  0
   -4.7340   -5.8380   -3.4710 H   0  0
   -5.9510   -6.4810   -2.2850 H   0  0
   -6.4630   -5.6230   -3.7380 H   0  0
   -1.8850   -0.5270    1.8870 H   0  0
   -2.1580   -1.3830    0.4010 H   0  0
    0.8710    0.4410    1.4220 H   0  0
    1.1150    1.4160   -2.1600 H   0  0
    0.1070    2.4710   -1.2320 H   0  0
   -0.5940   -1.5490   -1.3690 H   0  0
    0.7480   -0.8240   -2.2520 H   0  0
   -0.8850   -0.2030   -2.4670 H   0  0
   -0.0100   -2.2110    0.3220 H   0  0
    0.1350   -1.7230    1.9940 H   0  0
    2.2600   -0.7830   -0.9530 H   0  0
    1.6970    2.6370    0.5270 H   0  0
   -4.3130    3.0740    3.5880 H   0  0
    3.0610    1.1090    1.2720 H   0  0
    3.0270   -1.2680    1.9470 H   0  0
    2.4390   -2.4840    0.8320 H   0  0
    2.6760    3.8750   -0.6870 H   0  0
   -0.8690    5.6470    3.7760 H   0  0
   -3.3360    5.3240    4.7290 H   0  0
    4.9140   -2.4840    0.9240 H   0  0
    4.3400   -2.1210   -0.6850 H   0  0
    4.8420    3.0760   -0.0510 H   0  0
    5.5180    0.3630   -2.1390 H   0  0
    4.2950    1.6210   -2.2850 H   0  0
    3.8090   -0.0640   -2.1350 H   0  0
    6.8630   -1.3220    1.1780 H   0  0
    7.0140    3.0240    0.7890 H   0  0
  1  2  1  0
  1  3  1  0
  2  4  2  0
  2  5  1  0
  3  6  1  0
  4  7  1  0
  5  8  2  0
  6  9  2  0
  6 10  1  0
  7 11  2  0
  7 12  1  0
 10 13  1  0
 10 14  1  0
 10 15  1  0
 13 16  1  0
 14 17  1  0
 14 18  1  0
 14 19  1  0
 15 20  1  0
 16 21  2  0
 16 22  1  0
 17 23  1  0
 18 24  1  0
 22 25  1  0
 22 26  2  0
 27 23  1  0
 23 28  1  0
 24 29  1  0
 25 30  1  0
 26 31  1  0
 27 32  1  0
 28 33  1  0
 32 34  1  0
 32 35  1  0
 32 36  1  0
 34 37  2  0
 35 38  2  0
 37 39  1  0
 39 40  2  0
  8 11  1  0
 17 20  1  0
 24 27  1  0
 30 31  2  0
 33 34  1  0
 38 39  1  0
  3 41  1  0
  3 42  1  0
  8 43  1  0
 11 44  1  0
 12 45  1  0
 12 46  1  0
 12 47  1  0
 15 48  1  0
 15 49  1  0
 17 50  1  0
 18 51  1  0
 18 52  1  0
 19 53  1  0
 19 54  1  0
 19 55  1  0
 20 56  1  0
 20 57  1  0
 23 58  1  0
 24 59  1  0
 26 60  1  0
 27 61  1  0
 28 62  1  0
 28 63  1  0
 29 64  1  0
 30 65  1  0
 31 66  1  0
 33 67  1  0
 33 68  1  0
 35 69  1  0
 36 70  1  0
 36 71  1  0
 36 72  1  0
 37 73  1  0
 38 74  1  0
M  END
> <Name>
CHEMBL1917416

> <IC50 nM>
2.1

> <Molecule_ChEMBL_ID>
CHEMBL1917416

> <Smiles>
Cc1ccnc(SCC(=O)[C@@]2(OC(=O)c3ccco3)CC[C@H]3[C@@H]4CCC5=CC(=O)C=C[C@]5(C)[C@H]4[C@@H](O)C[C@@]32C)n1

$$$$
CHEMBL1917254
  SciTegic08162514323D

 77 83  0  0  1  0            999 V2000
   -4.9490   -2.3150    2.6720 S   0  0
   -4.9470   -2.7930    0.9920 C   0  0
   -5.9940   -3.5740    2.8960 C   0  0
   -4.2290   -2.2950   -0.4510 S   0  0
   -5.7640   -3.9080    0.7050 N   0  0
   -6.3790   -4.3630    1.8380 C   0  0
   -6.5140   -3.8670    4.1860 C   0  0
   -3.2480   -0.9380    0.0600 C   0  0
   -7.2720   -5.4530    1.9780 C   0  0
   -7.4080   -4.9490    4.3710 C   0  0
   -2.2700   -0.5880   -1.0290 C   0  0
   -7.7890   -5.7440    3.2640 C   0  0
   -2.2750   -1.1780   -2.0840 O   0  0
   -1.2810    0.5230   -0.7660 C   0  0  2  0  0  0
   -1.2130    1.3160   -1.9450 O   0  0
    0.1310    0.0530   -0.3670 C   0  0  2  0  0  0
   -1.6700    1.4300    0.4120 C   0  0
   -2.4020    1.7890   -2.3090 C   0  0
    0.7310    1.3830    0.1010 C   0  0  1  0  0  0
    1.0180   -0.4750   -1.5080 C   0  0
    0.0040   -0.9550    0.7830 C   0  0
   -0.3570    1.9340    1.0210 C   0  0
   -3.4240    1.5800   -1.6970 O   0  0
   -2.4260    2.5980   -3.5180 C   0  0
    2.1390    1.2130    0.7030 C   0  0  1  0  0  0
    2.4920   -0.6450   -1.0720 C   0  0  1  0  0  0
   -3.6310    3.0680   -3.9450 O   0  0
   -1.3590    2.9780   -4.3360 C   0  0
    3.0780    0.6250   -0.3810 C   0  0  2  0  0  0
    2.6390    2.5960    1.1520 C   0  0
    2.5960   -1.7810   -0.2360 O   0  0
   -3.3140    3.7710   -5.0720 C   0  0
   -1.9390    3.7420   -5.3480 C   0  0
    4.5590    0.5040    0.1110 C   0  0  2  0  0  0
    4.0760    2.5430    1.6720 C   0  0
    5.0290    1.8140    0.7440 C   0  0
    5.4570    0.1070   -1.0880 C   0  0
    4.7030   -0.5410    1.2260 C   0  0
    6.2600    2.3200    0.5170 C   0  0
    6.9570    0.2500   -0.8070 C   0  0
    7.2740    1.6330   -0.2970 C   0  0
    8.3300    2.1660   -0.5490 O   0  0
   -6.2250   -3.2600    5.0310 H   0  0
   -3.8910   -0.0840    0.2690 H   0  0
   -2.7090   -1.2010    0.9710 H   0  0
   -7.5550   -6.0550    1.1270 H   0  0
   -7.7990   -5.1660    5.3530 H   0  0
   -8.4710   -6.5700    3.3980 H   0  0
   -2.2250    0.8790    1.1600 H   0  0
   -2.3010    2.2460    0.0920 H   0  0
    0.8130    2.0530   -0.7440 H   0  0
    0.6170   -1.4120   -1.8970 H   0  0
    0.9900    0.2250   -2.3440 H   0  0
   -0.7030   -0.6190    1.5430 H   0  0
    0.9670   -1.1090    1.2710 H   0  0
   -0.3400   -1.9220    0.4140 H   0  0
   -0.3220    3.0120    1.0740 H   0  0
   -0.2400    1.5530    2.0270 H   0  0
    2.1000    0.5450    1.5640 H   0  0
    3.0800   -0.8750   -1.9610 H   0  0
   -0.3120    2.7340   -4.2130 H   0  0
    3.0980    1.3770   -1.1740 H   0  0
    1.9900    3.0020    1.9300 H   0  0
    2.5900    3.2930    0.3140 H   0  0
    2.3930   -2.5570   -0.7810 H   0  0
   -4.0510    4.2870   -5.6760 H   0  0
   -1.4340    4.2190   -6.1780 H   0  0
    4.4240    3.5610    1.8530 H   0  0
    4.0900    2.0410    2.6390 H   0  0
    5.2500   -0.9180   -1.3970 H   0  0
    5.2110    0.7340   -1.9470 H   0  0
    5.6370   -0.3970    1.7710 H   0  0
    3.8690   -0.4770    1.9260 H   0  0
    4.7130   -1.5490    0.8100 H   0  0
    6.5270    3.2710    0.9550 H   0  0
    7.2740   -0.4840   -0.0670 H   0  0
    7.5270    0.0530   -1.7150 H   0  0
  1  2  1  0
  1  3  1  0
  2  4  1  0
  2  5  2  0
  3  6  1  0
  3  7  2  0
  4  8  1  0
  6  9  2  0
  7 10  1  0
  8 11  1  0
  9 12  1  0
 11 13  2  0
 11 14  1  0
 14 15  1  0
 14 16  1  0
 14 17  1  0
 15 18  1  0
 16 19  1  0
 16 20  1  0
 16 21  1  0
 17 22  1  0
 18 23  2  0
 18 24  1  0
 19 25  1  0
 20 26  1  0
 24 27  1  0
 24 28  2  0
 29 25  1  0
 25 30  1  0
 26 31  1  0
 27 32  1  0
 28 33  1  0
 29 34  1  0
 30 35  1  0
 34 36  1  0
 34 37  1  0
 34 38  1  0
 36 39  2  0
 37 40  1  0
 39 41  1  0
 41 42  2  0
  5  6  1  0
 10 12  2  0
 19 22  1  0
 26 29  1  0
 32 33  2  0
 35 36  1  0
 40 41  1  0
  7 43  1  0
  8 44  1  0
  8 45  1  0
  9 46  1  0
 10 47  1  0
 12 48  1  0
 17 49  1  0
 17 50  1  0
 19 51  1  0
 20 52  1  0
 20 53  1  0
 21 54  1  0
 21 55  1  0
 21 56  1  0
 22 57  1  0
 22 58  1  0
 25 59  1  0
 26 60  1  0
 28 61  1  0
 29 62  1  0
 30 63  1  0
 30 64  1  0
 31 65  1  0
 32 66  1  0
 33 67  1  0
 35 68  1  0
 35 69  1  0
 37 70  1  0
 37 71  1  0
 38 72  1  0
 38 73  1  0
 38 74  1  0
 39 75  1  0
 40 76  1  0
 40 77  1  0
M  END
> <Name>
CHEMBL1917254

> <IC50 nM>
2

> <Molecule_ChEMBL_ID>
CHEMBL1917254

> <Smiles>
C[C@]12CCC(=O)C=C1CC[C@@H]1[C@@H]2[C@@H](O)C[C@@]2(C)[C@H]1CC[C@]2(OC(=O)c1ccco1)C(=O)CSc1nc2ccccc2s1

$$$$
CHEMBL264841
  SciTegic08162514323D

143150  0  0  1  0            999 V2000
  -13.7680   -6.1740    0.8090 S   0  0
  -12.7090   -5.7270    1.6950 O   0  0
  -14.7640   -5.1510    0.5430 O   0  0
  -13.0840   -6.5700   -0.6050 N   0  0
  -14.5780   -7.5880    1.5450 C   0  0
  -12.5240   -5.5960   -1.3930 C   0  0
  -12.0590   -5.8830   -2.6990 C   0  0
  -12.4140   -4.2890   -0.8810 C   0  0
  -11.4840   -4.8500   -3.4790 C   0  0
  -12.1720   -7.2700   -3.2500 C   0  0
  -11.8440   -3.2700   -1.6580 C   0  0
  -11.0240   -5.0900   -4.7500 N   0  0
  -11.3810   -3.5490   -2.9530 C   0  0
   -9.8420   -5.9340   -4.9790 C   0  0
  -11.7110   -4.5000   -5.9060 C   0  0
   -8.7950   -5.7010   -3.9490 C   0  0
  -13.1170   -4.9710   -6.0060 C   0  0
   -8.5240   -6.6920   -2.9860 C   0  0
   -8.0760   -4.4940   -3.9360 C   0  0
  -14.1560   -4.2190   -5.4260 C   0  0
  -13.4120   -6.1720   -6.6780 C   0  0
   -7.5330   -6.4710   -2.0140 C   0  0
   -7.0880   -4.2750   -2.9610 C   0  0
  -15.4850   -4.6660   -5.5200 C   0  0
  -14.7400   -6.6170   -6.7720 C   0  0
   -6.8130   -5.2620   -1.9960 C   0  0
  -15.7780   -5.8650   -6.1930 C   0  0
   -5.8870   -5.0570   -1.0840 O   0  0
   -4.8010   -4.4000   -1.4410 C   0  0
   -4.1910   -3.5000   -0.5470 C   0  0
   -4.2460   -4.5960   -2.7170 C   0  0
   -3.0330   -2.7970   -0.9260 C   0  0
   -3.0880   -3.8950   -3.1000 C   0  0
   -2.4670   -1.9550   -0.0860 O   0  0
   -2.4840   -2.9980   -2.2030 C   0  0
   -1.2990   -1.2720   -0.5140 C   0  0
   -0.8140   -0.3650    0.5860 C   0  0
   -1.4000   -0.3010    1.6430 O   0  0
    0.3050    0.3870    0.3710 N   0  0
    0.7910    1.2750    1.4360 C   0  0
    2.0490    2.0230    0.9940 C   0  0
    2.4650    2.8550    2.0530 O   0  0
    3.6080    3.6270    1.7400 C   0  0  2  0  0  0
    4.8730    2.7420    1.8150 C   0  0
    3.6660    4.8320    2.7050 C   0  0
    5.5860    2.8980    3.1720 C   0  0  2  0  0  0
    5.0940    5.3810    2.8070 C   0  0
    6.1170    4.3520    3.3730 C   0  0  2  0  0  0
    6.6450    1.8110    3.4490 C   0  0
    7.4900    4.5610    2.6640 C   0  0  2  0  0  0
    6.2760    4.5840    4.8830 C   0  0
    7.9920    2.0430    2.7520 C   0  0  2  0  0  0
    8.5240    3.4650    3.0290 C   0  0  1  0  0  0
    8.0670    5.9840    2.9000 C   0  0
    7.8460    1.8120    1.3630 O   0  0
    9.8380    3.7480    2.2770 C   0  0  1  0  0  0
    9.4300    6.2340    2.2230 C   0  0  1  0  0  0
   10.4180    5.1250    2.6370 C   0  0  2  0  0  0
   11.0060    2.8050    2.5550 C   0  0
    9.2460    6.2770    0.8180 O   0  0
   11.7480    5.0370    1.8710 C   0  0  2  0  0  0
   10.7270    5.2210    4.1390 C   0  0
   12.2460    3.6150    2.1620 C   0  0
   12.7660    6.1060    2.2620 C   0  0  1  0  0  0
   14.0880    5.8400    1.5410 C   0  0
   12.1960    7.4900    1.9530 C   0  0
   15.2520    6.6370    2.1270 C   0  0
   16.5590    6.3320    1.4450 C   0  0
   16.6120    5.5610    0.5180 O   0  0
   17.6180    6.9670    1.9410 O   0  0
  -13.0720   -7.5240   -0.9060 H   0  0
  -15.0570   -7.3830    2.5020 H   0  0
  -13.8500   -8.3850    1.7030 H   0  0
  -15.3420   -7.9650    0.8650 H   0  0
  -12.7640   -4.0510    0.1150 H   0  0
  -12.0760   -7.3300   -4.3340 H   0  0
  -13.1390   -7.6920   -2.9770 H   0  0
  -11.3970   -7.8990   -2.8130 H   0  0
  -11.7620   -2.2700   -1.2620 H   0  0
  -10.9470   -2.7480   -3.5350 H   0  0
  -10.1410   -6.9830   -4.9630 H   0  0
   -9.4340   -5.7190   -5.9650 H   0  0
  -11.1740   -4.7640   -6.8160 H   0  0
  -11.6990   -3.4140   -5.8150 H   0  0
   -9.0720   -7.6210   -2.9920 H   0  0
   -8.2810   -3.7310   -4.6720 H   0  0
  -13.9380   -3.2970   -4.9080 H   0  0
  -12.6190   -6.7540   -7.1250 H   0  0
   -7.3280   -7.2330   -1.2750 H   0  0
   -6.5390   -3.3460   -2.9530 H   0  0
  -16.2810   -4.0880   -5.0760 H   0  0
  -14.9670   -7.5390   -7.2890 H   0  0
  -16.7990   -6.2090   -6.2660 H   0  0
   -4.6170   -3.3480    0.4340 H   0  0
   -4.7090   -5.2850   -3.4080 H   0  0
   -2.6640   -4.0470   -4.0800 H   0  0
   -1.5940   -2.4610   -2.4980 H   0  0
   -0.5350   -2.0120   -0.7480 H   0  0
   -1.5550   -0.6800   -1.3950 H   0  0
    0.7890    0.3320   -0.5020 H   0  0
    0.0020    1.9770    1.7070 H   0  0
    0.9880    0.6870    2.3320 H   0  0
    2.8580    1.3240    0.7750 H   0  0
    1.8400    2.6540    0.1290 H   0  0
    3.4790    3.9770    0.7150 H   0  0
    4.6390    1.6950    1.6150 H   0  0
    5.5530    3.0450    1.0200 H   0  0
    2.9830    5.6130    2.3670 H   0  0
    3.3380    4.5510    3.7070 H   0  0
    4.8090    2.7210    3.9180 H   0  0
    5.3870    5.6890    1.8010 H   0  0
    5.1020    6.2970    3.4000 H   0  0
    6.8300    1.7830    4.5240 H   0  0
    6.2480    0.8240    3.2030 H   0  0
    7.3130    4.4750    1.5920 H   0  0
    5.3560    4.3670    5.4260 H   0  0
    6.5470    5.6190    5.0880 H   0  0
    7.0610    3.9450    5.2910 H   0  0
    8.7090    1.3050    3.1110 H   0  0
    8.7190    3.5270    4.1020 H   0  0
    7.3560    6.7400    2.5660 H   0  0
    8.1800    6.1500    3.9730 H   0  0
    8.7210    1.5760    1.0180 H   0  0
    9.6390    3.7150    1.2150 H   0  0
    9.8190    7.2110    2.5140 H   0  0
   10.9240    1.8870    1.9900 H   0  0
   11.0450    2.5410    3.6040 H   0  0
    8.7150    7.0650    0.6230 H   0  0
   11.5670    5.1170    0.8090 H   0  0
   11.4810    4.4960    4.4450 H   0  0
    9.8280    5.0390    4.7290 H   0  0
   11.0960    6.2150    4.3930 H   0  0
   12.7350    3.1950    1.2950 H   0  0
   12.9630    3.6020    2.9710 H   0  0
   12.8790    5.9670    3.3360 H   0  0
   13.9910    6.0310    0.4730 H   0  0
   14.3170    4.7730    1.5350 H   0  0
   12.9960    8.1950    1.7290 H   0  0
   11.5120    7.4450    1.1060 H   0  0
   11.6410    7.8770    2.8090 H   0  0
   15.3090    6.3570    3.1800 H   0  0
   15.0490    7.7070    2.0780 H   0  0
   18.4870    6.8160    1.5490 H   0  0
  1  2  2  0
  1  3  2  0
  1  4  1  0
  1  5  1  0
  4  6  1  0
  6  7  2  0
  6  8  1  0
  7  9  1  0
  7 10  1  0
  8 11  2  0
  9 12  1  0
  9 13  2  0
 12 14  1  0
 12 15  1  0
 14 16  1  0
 15 17  1  0
 16 18  2  0
 16 19  1  0
 17 20  2  0
 17 21  1  0
 18 22  1  0
 19 23  2  0
 20 24  1  0
 21 25  2  0
 22 26  2  0
 24 27  2  0
 26 28  1  0
 28 29  1  0
 29 30  2  0
 29 31  1  0
 30 32  1  0
 31 33  2  0
 32 34  1  0
 32 35  2  0
 34 36  1  0
 36 37  1  0
 37 38  2  0
 37 39  1  0
 39 40  1  0
 40 41  1  0
 41 42  1  0
 43 42  1  0
 43 44  1  0
 43 45  1  0
 46 44  1  0
 45 47  1  0
 46 48  1  0
 46 49  1  0
 48 50  1  0
 48 51  1  0
 49 52  1  0
 53 50  1  0
 50 54  1  0
 52 55  1  0
 53 56  1  0
 54 57  1  0
 56 58  1  0
 56 59  1  0
 57 60  1  0
 58 61  1  0
 58 62  1  0
 59 63  1  0
 61 64  1  0
 64 65  1  0
 64 66  1  0
 65 67  1  0
 67 68  1  0
 68 69  2  0
 68 70  1  0
 11 13  1  0
 23 26  1  0
 25 27  1  0
 33 35  1  0
 47 48  1  0
 52 53  1  0
 57 58  1  0
 61 63  1  0
  4 71  1  0
  5 72  1  0
  5 73  1  0
  5 74  1  0
  8 75  1  0
 10 76  1  0
 10 77  1  0
 10 78  1  0
 11 79  1  0
 13 80  1  0
 14 81  1  0
 14 82  1  0
 15 83  1  0
 15 84  1  0
 18 85  1  0
 19 86  1  0
 20 87  1  0
 21 88  1  0
 22 89  1  0
 23 90  1  0
 24 91  1  0
 25 92  1  0
 27 93  1  0
 30 94  1  0
 31 95  1  0
 33 96  1  0
 35 97  1  0
 36 98  1  0
 36 99  1  0
 39100  1  0
 40101  1  0
 40102  1  0
 41103  1  0
 41104  1  0
 43105  1  0
 44106  1  0
 44107  1  0
 45108  1  0
 45109  1  0
 46110  1  0
 47111  1  0
 47112  1  0
 49113  1  0
 49114  1  0
 50115  1  0
 51116  1  0
 51117  1  0
 51118  1  0
 52119  1  0
 53120  1  0
 54121  1  0
 54122  1  0
 55123  1  0
 56124  1  0
 57125  1  0
 59126  1  0
 59127  1  0
 60128  1  0
 61129  1  0
 62130  1  0
 62131  1  0
 62132  1  0
 63133  1  0
 63134  1  0
 64135  1  0
 65136  1  0
 65137  1  0
 66138  1  0
 66139  1  0
 66140  1  0
 67141  1  0
 67142  1  0
 70143  1  0
M  END
> <Name>
CHEMBL264841

> <IC50 nM>
57

> <Molecule_ChEMBL_ID>
CHEMBL264841

> <Smiles>
Cc1c(NS(C)(=O)=O)cccc1N(Cc1ccccc1)Cc1ccc(Oc2cccc(OCC(=O)NCCO[C@H]3CC[C@@]4(C)[C@@H](C3)C[C@@H](O)[C@@H]3[C@@H]4C[C@H](O)[C@]4(C)[C@@H]([C@H](C)CCC(=O)O)CC[C@@H]34)c2)cc1

$$$$
CHEMBL1940554
  SciTegic08162514323D

 66 71  0  0  1  0            999 V2000
    4.5610   -0.1880   -2.1310 S   0  0
    4.0040   -0.1800   -3.7250 C   0  0
    3.0760   -0.2400   -1.2070 C   0  0
    2.6620   -0.2010   -4.0220 N   0  0
    4.8670   -0.1480   -4.7930 N   0  0
    3.3990   -0.2730    0.2620 C   0  0
    2.6880   -0.1840   -5.3710 C   0  0
    3.9940   -0.1540   -5.8150 C   0  0
    4.4770    0.0920    0.6700 O   0  0
    2.3360   -0.7770    1.2110 C   0  0  2  0  0  0
    1.5100   -0.1970   -6.0630 N   0  0
    4.1620   -0.1350   -7.2250 C   0  0
    2.1990   -2.1680    0.9750 O   0  0
    0.9690   -0.0610    1.0900 C   0  0  2  0  0  0
    2.6880   -0.5630    2.6970 C   0  0
    1.6920   -0.1780   -7.4430 C   0  0
    2.9920   -0.1460   -8.0510 C   0  0
    0.2790   -0.5060    2.3870 C   0  0  1  0  0  0
    0.0570   -0.4550   -0.0860 C   0  0
    1.2380    1.4530    1.1070 C   0  0
    1.3710   -0.2870    3.4340 C   0  0
   -1.0620    0.2070    2.6130 C   0  0  1  0  0  0
   -1.3670    0.1350    0.0430 C   0  0  1  0  0  0
   -2.0160   -0.1370    1.4340 C   0  0  2  0  0  0
   -1.6460   -0.2580    3.9610 C   0  0
   -1.3220    1.5220   -0.2400 O   0  0
   -3.4410    0.4670    1.6480 C   0  0  2  0  0  0
   -3.0530    0.2990    4.2030 C   0  0
   -3.9530    0.0200    3.0200 C   0  0
   -4.3810    0.0740    0.5120 C   0  0
   -3.4120    2.0020    1.6820 C   0  0
   -5.1390   -0.6040    3.1910 C   0  0
   -5.5550   -0.5550    0.7070 C   0  0
   -6.0120   -0.9100    2.0550 C   0  0
   -7.0820   -1.4470    2.2230 O   0  0
    2.4750    0.6410   -1.4360 H   0  0
    2.5080   -1.1290   -1.4820 H   0  0
    5.8600   -0.1290   -4.8050 H   0  0
    5.1490   -0.1110   -7.6660 H   0  0
    1.8930   -2.2750    0.0630 H   0  0
    3.2130   -1.4040    3.1270 H   0  0
    3.3420    0.2910    2.8180 H   0  0
    0.8180   -0.1860   -8.0800 H   0  0
    3.0880   -0.1330   -9.1250 H   0  0
    0.0800   -1.5700    2.3380 H   0  0
    0.5140   -0.1660   -1.0330 H   0  0
   -0.0410   -1.5410   -0.1270 H   0  0
    0.3300    2.0020    1.3590 H   0  0
    2.0140    1.6970    1.8340 H   0  0
    1.5760    1.7970    0.1310 H   0  0
    1.2400   -0.9360    4.2850 H   0  0
    1.3540    0.7300    3.7970 H   0  0
   -0.9060    1.2850    2.6540 H   0  0
   -1.9800   -0.3090   -0.7400 H   0  0
   -2.1480   -1.2210    1.4670 H   0  0
   -0.9920    0.0410    4.7810 H   0  0
   -1.6890   -1.3480    3.9840 H   0  0
   -1.0780    1.6130   -1.1760 H   0  0
   -3.0020    1.3750    4.3670 H   0  0
   -3.4650   -0.1350    5.1170 H   0  0
   -4.1020    0.3090   -0.5040 H   0  0
   -4.3140    2.4160    2.1310 H   0  0
   -3.3260    2.4060    0.6720 H   0  0
   -2.5590    2.3590    2.2560 H   0  0
   -5.4590   -0.8870    4.1840 H   0  0
   -6.1720   -0.8030   -0.1450 H   0  0
  1  2  1  0
  1  3  1  0
  2  4  2  0
  2  5  1  0
  3  6  1  0
  4  7  1  0
  5  8  1  0
  6  9  2  0
  6 10  1  0
  7 11  1  0
  8 12  1  0
 10 13  1  0
 10 14  1  0
 10 15  1  0
 11 16  2  0
 12 17  2  0
 14 18  1  0
 14 19  1  0
 14 20  1  0
 15 21  1  0
 18 22  1  0
 19 23  1  0
 24 22  1  0
 22 25  1  0
 23 26  1  0
 24 27  1  0
 25 28  1  0
 27 29  1  0
 27 30  1  0
 27 31  1  0
 29 32  2  0
 30 33  2  0
 32 34  1  0
 34 35  2  0
  7  8  2  0
 16 17  1  0
 18 21  1  0
 23 24  1  0
 28 29  1  0
 33 34  1  0
  3 36  1  0
  3 37  1  0
  5 38  1  0
 12 39  1  0
 13 40  1  0
 15 41  1  0
 15 42  1  0
 16 43  1  0
 17 44  1  0
 18 45  1  0
 19 46  1  0
 19 47  1  0
 20 48  1  0
 20 49  1  0
 20 50  1  0
 21 51  1  0
 21 52  1  0
 22 53  1  0
 23 54  1  0
 24 55  1  0
 25 56  1  0
 25 57  1  0
 26 58  1  0
 28 59  1  0
 28 60  1  0
 30 61  1  0
 31 62  1  0
 31 63  1  0
 31 64  1  0
 32 65  1  0
 33 66  1  0
M  END
> <Name>
CHEMBL1940554

> <IC50 nM>
57.2

> <Molecule_ChEMBL_ID>
CHEMBL1940554

> <Smiles>
C[C@]12C=CC(=O)C=C1CC[C@@H]1[C@@H]2[C@@H](O)C[C@@]2(C)[C@H]1CC[C@]2(O)C(=O)CSc1nc2ncccc2[nH]1

$$$$
CHEMBL1940696
  SciTegic08162514323D

 70 75  0  0  1  0            999 V2000
    4.4280    1.7720   -0.3180 S   0  0
    5.9040    1.0630    0.0940 C   0  0
    3.3160    0.4220   -0.2230 C   0  0
    6.0020   -0.2730    0.3990 N   0  0
    7.0660    1.7870    0.1410 N   0  0
    1.9280    0.8910   -0.5660 C   0  0
    7.3200   -0.3890    0.6520 C   0  0
    7.9570    0.8420    0.5000 C   0  0
    1.6950    2.0630   -0.7540 O   0  0
    0.8320   -0.1460   -0.6700 C   0  0  2  0  0  0
    8.0510   -1.5410    1.0290 C   0  0
    9.3520    0.9710    0.7150 C   0  0
    0.9370   -0.7400   -1.9550 O   0  0
   -0.5940    0.4080   -0.4340 C   0  0  2  0  0  0
    0.9020   -1.2340    0.4280 C   0  0  1  0  0  0
    9.4470   -1.4300    1.2480 C   0  0
   10.0960   -0.1760    1.0900 C   0  0
   -1.4140   -0.8850   -0.3050 C   0  0  1  0  0  0
   -1.2500    1.2340   -1.5510 C   0  0
   -0.5610    1.1840    0.8950 C   0  0
   -0.5330   -1.7660    0.5860 C   0  0
    1.9160   -2.3530    0.1950 C   0  0
   -2.8420   -0.6110    0.1970 C   0  0  1  0  0  0
   -2.7290    1.5700   -1.2260 C   0  0  1  0  0  0
   -3.5840    0.3360   -0.7830 C   0  0  2  0  0  0
   -3.6130   -1.9370    0.3380 C   0  0
   -2.7640    2.6020   -0.2600 O   0  0
   -5.0260    0.6600   -0.2540 C   0  0  2  0  0  0
   -5.0470   -1.7110    0.8380 C   0  0
   -5.7830   -0.6330    0.0630 C   0  0
   -5.7760    1.5610   -1.2300 C   0  0
   -4.9830    1.4180    1.0780 C   0  0
   -7.0690   -0.8200   -0.3070 C   0  0
   -7.0590    1.3480   -1.5840 C   0  0
   -7.7990    0.1930   -1.0720 C   0  0
   -8.9850    0.0780   -1.2830 O   0  0
    3.6290   -0.3550   -0.9200 H   0  0
    3.3280    0.0120    0.7870 H   0  0
    7.2090    2.7540   -0.0410 H   0  0
    7.5570   -2.4940    1.1490 H   0  0
    9.8440    1.9240    0.5940 H   0  0
    1.8500   -1.0590   -2.0510 H   0  0
    1.1700   -0.7620    1.3630 H   0  0
   10.0180   -2.2990    1.5330 H   0  0
   11.1600   -0.0960    1.2580 H   0  0
   -1.4860   -1.3590   -1.2730 H   0  0
   -1.2270    0.6720   -2.4860 H   0  0
   -0.6800    2.1490   -1.7340 H   0  0
   -1.5630    1.3930    1.2700 H   0  0
   -0.0450    2.1370    0.7720 H   0  0
   -0.0310    0.6150    1.6600 H   0  0
   -0.6330   -2.8050    0.3010 H   0  0
   -0.8420   -1.6910    1.6170 H   0  0
    1.8260   -3.1230    0.9610 H   0  0
    1.7700   -2.8090   -0.7850 H   0  0
    2.9340   -1.9650    0.2330 H   0  0
   -2.7910   -0.1390    1.1820 H   0  0
   -3.1640    1.9980   -2.1310 H   0  0
   -3.7190   -0.2400   -1.7030 H   0  0
   -3.6430   -2.4590   -0.6210 H   0  0
   -3.1020   -2.6050    1.0330 H   0  0
   -3.2090    3.3610   -0.6680 H   0  0
   -5.5980   -2.6540    0.7990 H   0  0
   -5.0180   -1.4200    1.8870 H   0  0
   -5.2700    2.4140   -1.6680 H   0  0
   -5.9300    1.3500    1.6150 H   0  0
   -4.7660    2.4730    0.9160 H   0  0
   -4.2030    1.0160    1.7270 H   0  0
   -7.5760   -1.7340   -0.0330 H   0  0
   -7.5410    2.0450   -2.2540 H   0  0
  1  2  1  0
  1  3  1  0
  2  4  2  0
  2  5  1  0
  3  6  1  0
  4  7  1  0
  5  8  1  0
  6  9  2  0
  6 10  1  0
  7 11  1  0
  8 12  1  0
 10 13  1  0
 10 14  1  0
 10 15  1  0
 11 16  2  0
 12 17  2  0
 14 18  1  0
 14 19  1  0
 14 20  1  0
 15 21  1  0
 15 22  1  0
 18 23  1  0
 19 24  1  0
 25 23  1  0
 23 26  1  0
 24 27  1  0
 25 28  1  0
 26 29  1  0
 28 30  1  0
 28 31  1  0
 28 32  1  0
 30 33  2  0
 31 34  2  0
 33 35  1  0
 35 36  2  0
  7  8  2  0
 16 17  1  0
 18 21  1  0
 24 25  1  0
 29 30  1  0
 34 35  1  0
  3 37  1  0
  3 38  1  0
  5 39  1  0
 11 40  1  0
 12 41  1  0
 13 42  1  0
 15 43  1  0
 16 44  1  0
 17 45  1  0
 18 46  1  0
 19 47  1  0
 19 48  1  0
 20 49  1  0
 20 50  1  0
 20 51  1  0
 21 52  1  0
 21 53  1  0
 22 54  1  0
 22 55  1  0
 22 56  1  0
 23 57  1  0
 24 58  1  0
 25 59  1  0
 26 60  1  0
 26 61  1  0
 27 62  1  0
 29 63  1  0
 29 64  1  0
 31 65  1  0
 32 66  1  0
 32 67  1  0
 32 68  1  0
 33 69  1  0
 34 70  1  0
M  END
> <Name>
CHEMBL1940696

> <IC50 nM>
36

> <Molecule_ChEMBL_ID>
CHEMBL1940696

> <Smiles>
C[C@@H]1C[C@H]2[C@@H]3CCC4=CC(=O)C=C[C@]4(C)[C@H]3[C@@H](O)C[C@]2(C)[C@@]1(O)C(=O)CSc1nc2ccccc2[nH]1

$$$$
CHEMBL194013
  SciTegic08162514323D

 47 51  0  0  1  0            999 V2000
   -6.7230   -3.7750   -1.9370 F   0  0
   -5.8910   -2.8280   -1.5100 C   0  0
   -4.8070   -3.1640   -0.6810 C   0  0
   -6.0980   -1.4900   -1.8900 C   0  0
   -3.9280   -2.1620   -0.2300 C   0  0
   -5.2210   -0.4880   -1.4410 C   0  0
   -4.1330   -0.8220   -0.6090 C   0  0
   -3.2850    0.1470   -0.1760 N   0  0
   -3.6720    1.3650    0.2870 N   0  0
   -1.9300    0.0530   -0.1310 C   0  0
   -2.6290    2.1580    0.6550 C   0  0
   -1.5720    1.3010    0.3650 C   0  0
   -0.9670   -1.0120   -0.4900 C   0  0
   -0.0820    1.6090    0.5220 C   0  0
    0.3160   -0.8120   -0.1170 C   0  0
    0.7360    0.3160    0.8090 C   0  0  1  0  0  0
    1.4880   -1.6210   -0.5780 C   0  0
    2.2750    0.3870    0.5410 C   0  0  1  0  0  0
    0.4280   -0.1410    2.2440 C   0  0
    2.5800   -0.5570   -0.6520 C   0  0
    2.7540    1.6950    0.2930 O   0  0
    3.0760    0.0330    1.6560 O   0  0
    4.1290    1.7930    0.6100 C   0  0  1  0  0  0
    4.3690    0.5740    1.5060 C   0  0
    4.9490    1.7990   -0.6580 C   0  0
    5.9000    2.7360   -0.8010 C   0  0
   -4.6470   -4.1890   -0.3870 H   0  0
   -6.9280   -1.2280   -2.5270 H   0  0
   -3.1000   -2.4410    0.4060 H   0  0
   -5.3950    0.5350   -1.7440 H   0  0
   -2.6580    3.1640    1.0510 H   0  0
   -1.2770   -1.8910   -1.0350 H   0  0
    0.0760    2.3520    1.3050 H   0  0
    0.2480    2.0650   -0.4120 H   0  0
    1.3090   -2.0880   -1.5350 H   0  0
    1.7230   -2.3830    0.1510 H   0  0
   -0.6470   -0.2360    2.3950 H   0  0
    0.9040   -1.0980    2.4530 H   0  0
    0.8030    0.5840    2.9670 H   0  0
    2.4840   -0.0210   -1.5880 H   0  0
    3.5700   -0.9900   -0.6380 H   0  0
    4.2810    2.7190    1.1450 H   0  0
    4.7790    0.8180    2.4750 H   0  0
    5.0000   -0.1680    1.0330 H   0  0
    4.8480    1.1110   -1.4840 H   0  0
    6.5570    2.8710   -1.6480 H   0  0
    6.0060    3.4180    0.0300 H   0  0
  1  2  1  0
  2  3  2  0
  2  4  1  0
  3  5  1  0
  4  6  2  0
  5  7  2  0
  7  8  1  0
  8  9  1  0
  8 10  1  0
  9 11  2  0
 10 12  2  0
 10 13  1  0
 12 14  1  0
 13 15  2  0
 14 16  1  0
 15 17  1  0
 16 18  1  0
 16 19  1  0
 17 20  1  0
 18 21  1  0
 18 22  1  0
 21 23  1  0
 22 24  1  0
 23 25  1  0
 25 26  2  0
  6  7  1  0
 11 12  1  0
 15 16  1  0
 18 20  1  0
 23 24  1  0
  3 27  1  0
  4 28  1  0
  5 29  1  0
  6 30  1  0
 11 31  1  0
 13 32  1  0
 14 33  1  0
 14 34  1  0
 17 35  1  0
 17 36  1  0
 19 37  1  0
 19 38  1  0
 19 39  1  0
 20 40  1  0
 20 41  1  0
 23 42  1  0
 24 43  1  0
 24 44  1  0
 25 45  1  0
 26 46  1  0
 26 47  1  0
M  END
> <Name>
CHEMBL194013

> <IC50 nM>
5.8

> <Molecule_ChEMBL_ID>
CHEMBL194013

> <Smiles>
C=C[C@@H]1CO[C@]2(CCC3=Cc4c(cnn4-c4ccc(F)cc4)C[C@@]32C)O1

$$$$
CHEMBL219684
  SciTegic08162514323D

137145  0  0  1  0            999 V2000
   -7.5510  -10.5100   -1.8850 O   0  0
   -6.4570  -10.0240   -1.7360 C   0  0
   -5.6110  -10.4200   -0.6020 C   0  0
   -5.9400   -8.9980   -2.7150 C   0  0
   -4.4360   -9.8320   -0.3010 C   0  0
   -4.7440   -8.1510   -2.2420 C   0  0
   -3.8850   -8.7170   -1.1110 C   0  0
   -3.6560  -10.3400    0.8920 C   0  0
   -2.6560   -8.2050   -0.8540 C   0  0
   -2.1580  -10.1760    0.6890 C   0  0
   -2.0570   -7.0330   -1.6390 C   0  0  1  0  0  0
   -1.7730   -8.7420    0.2830 C   0  0  1  0  0  0
   -2.2870   -5.7460   -0.9490 C   0  0
   -0.5820   -7.2790   -2.0240 C   0  0
   -0.3070   -8.8420   -0.1540 C   0  0  1  0  0  0
   -3.0490   -5.7070    0.2320 C   0  0
   -1.7420   -4.5610   -1.4730 C   0  0
    0.3090   -7.6100   -0.8200 C   0  0  1  0  0  0
    0.7850   -9.1740    0.8770 C   0  0
   -3.2680   -4.4840    0.8890 C   0  0
   -1.9610   -3.3380   -0.8180 C   0  0
    1.7600   -8.1170   -1.0980 C   0  0  2  0  0  0
    0.3360   -6.4360    0.1800 C   0  0
    2.1040   -8.6330    0.3120 C   0  0
   -2.7250   -3.2950    0.3630 C   0  0
    2.6190   -7.0680   -1.4790 O   0  0
    1.8420   -9.2440   -2.0470 C   0  0
   -2.9380   -2.1040    1.0040 N   0  0
    1.9060  -10.1880   -2.7680 C   0  0
   -2.4690   -0.8380    0.4200 C   0  0
   -3.6430   -2.0740    2.2930 C   0  0
    1.9960  -11.3830   -3.6060 C   0  0
   -0.9840   -0.6170    0.7070 C   0  0
   -0.5350    0.4570   -0.0880 O   0  0
   -0.8750    1.7250    0.4450 C   0  0  2  0  0  0
   -0.6330    2.8140   -0.6190 C   0  0
   -0.0640    1.9630    1.7340 C   0  0
    0.8090    3.3570   -0.6020 C   0  0  2  0  0  0
    0.2790    3.4490    1.9060 C   0  0
    1.2190    3.9650    0.7850 C   0  0  2  0  0  0
    1.0180    4.3320   -1.7810 C   0  0
    1.1910    5.5200    0.7050 C   0  0  2  0  0  0
    2.6490    3.5120    1.1330 C   0  0
    2.2850    5.1740   -1.5960 C   0  0  2  0  0  0
    2.2310    6.0700   -0.3220 C   0  0  1  0  0  0
    1.3240    6.2320    2.0720 C   0  0
    2.5200    5.9100   -2.7760 O   0  0
    1.9180    7.5840   -0.4610 C   0  0  1  0  0  0
    1.1390    7.7600    1.9630 C   0  0  1  0  0  0
    2.1020    8.3090    0.8910 C   0  0  2  0  0  0
    2.7970    8.4510   -1.3750 C   0  0
   -0.2110    8.0410    1.6410 O   0  0
    1.8710    9.7640    0.4550 C   0  0  2  0  0  0
    3.5510    8.1880    1.3960 C   0  0
    2.6930    9.8770   -0.8300 C   0  0
    2.2620   10.8050    1.5000 C   0  0  1  0  0  0
    2.2210   12.1970    0.8710 C   0  0
    1.3440   10.6780    2.7150 C   0  0
    3.5740   12.9080    0.9240 C   0  0
    3.5290   14.2740    0.2910 C   0  0
    2.7500   15.1150    0.6780 O   0  0
    4.3950   14.4670   -0.6990 O   0  0
   -5.9710  -11.2380    0.0060 H   0  0
   -5.6540   -9.5280   -3.6290 H   0  0
   -6.7600   -8.3380   -3.0040 H   0  0
   -4.1330   -8.0160   -3.1370 H   0  0
   -5.0980   -7.1620   -1.9530 H   0  0
   -3.9790   -9.7810    1.7710 H   0  0
   -3.8910  -11.3870    1.0900 H   0  0
   -1.6290  -10.4900    1.5840 H   0  0
   -1.8540  -10.8730   -0.0920 H   0  0
   -2.5570   -6.9100   -2.6060 H   0  0
   -1.8710   -8.0800    1.1440 H   0  0
   -0.1930   -6.4040   -2.5330 H   0  0
   -0.5330   -8.0570   -2.7640 H   0  0
   -0.3160   -9.6250   -0.8990 H   0  0
   -3.4690   -6.6170    0.6390 H   0  0
   -1.1560   -4.5860   -2.3810 H   0  0
    0.8360  -10.2370    1.0290 H   0  0
    0.5980   -8.7210    1.8380 H   0  0
   -3.8550   -4.4730    1.7950 H   0  0
   -1.5350   -2.4360   -1.2360 H   0  0
    1.0840   -6.5840    0.9590 H   0  0
   -0.6330   -6.3200    0.6640 H   0  0
    0.5660   -5.5000   -0.3300 H   0  0
    2.4790   -7.8280    0.9330 H   0  0
    2.8850   -9.3810    0.2990 H   0  0
    3.5270   -7.3890   -1.3670 H   0  0
   -3.0640   -0.0160    0.8180 H   0  0
   -2.6560   -0.8480   -0.6540 H   0  0
   -3.6890   -1.0960    2.7680 H   0  0
   -3.1480   -2.7580    2.9860 H   0  0
   -4.6640   -2.4260    2.1500 H   0  0
    3.0290  -11.7110   -3.6950 H   0  0
    1.5880  -11.2170   -4.5960 H   0  0
    1.4320  -12.1960   -3.1430 H   0  0
   -0.4040   -1.5000    0.4410 H   0  0
   -0.8280   -0.3540    1.7540 H   0  0
   -1.9390    1.6890    0.6780 H   0  0
   -0.8960    2.4490   -1.6150 H   0  0
   -1.3120    3.6450   -0.4280 H   0  0
    0.8710    1.4000    1.7280 H   0  0
   -0.6250    1.6020    2.5980 H   0  0
    1.4530    2.4960   -0.7910 H   0  0
   -0.6500    4.0200    1.9080 H   0  0
    0.7290    3.6050    2.8870 H   0  0
    1.0590    3.7640   -2.7110 H   0  0
    0.1560    4.9980   -1.8690 H   0  0
    0.1950    5.7680    0.3340 H   0  0
    2.7250    2.4280    1.2050 H   0  0
    2.9650    3.9340    2.0880 H   0  0
    3.3560    3.8460    0.3710 H   0  0
    3.1270    4.4860   -1.5060 H   0  0
    3.2250    5.9880    0.1210 H   0  0
    0.5960    5.8480    2.7870 H   0  0
    2.3010    6.0120    2.5000 H   0  0
    2.7170    5.2700   -3.4770 H   0  0
    0.8970    7.6910   -0.8010 H   0  0
    1.3360    8.2310    2.9260 H   0  0
    3.8220    8.1130   -1.3500 H   0  0
    2.4690    8.4180   -2.4040 H   0  0
   -0.7520    7.7480    2.3910 H   0  0
    0.8300    9.9100    0.1990 H   0  0
    4.2620    8.6390    0.7030 H   0  0
    3.8280    7.1410    1.5230 H   0  0
    3.6660    8.6840    2.3590 H   0  0
    2.2150   10.5410   -1.5330 H   0  0
    3.6820   10.2700   -0.6370 H   0  0
    3.2850   10.5290    1.7600 H   0  0
    1.4470   12.8070    1.3360 H   0  0
    1.8520   12.1470   -0.1520 H   0  0
    1.7620   10.0160    3.4730 H   0  0
    0.3710   10.2790    2.4240 H   0  0
    1.1780   11.6510    3.1760 H   0  0
    4.2700   12.2720    0.3810 H   0  0
    3.9280   12.9880    1.9530 H   0  0
    4.9900   13.7500   -0.9530 H   0  0
  1  2  2  0
  2  3  1  0
  2  4  1  0
  3  5  2  0
  4  6  1  0
  5  7  1  0
  5  8  1  0
  7  9  2  0
  8 10  1  0
  9 11  1  0
  9 12  1  0
 11 13  1  0
 11 14  1  0
 12 15  1  0
 13 16  2  0
 13 17  1  0
 14 18  1  0
 15 19  1  0
 16 20  1  0
 17 21  2  0
 18 22  1  0
 18 23  1  0
 19 24  1  0
 20 25  2  0
 22 26  1  0
 22 27  1  0
 25 28  1  0
 27 29  3  0
 28 30  1  0
 28 31  1  0
 29 32  1  0
 30 33  1  0
 33 34  1  0
 35 34  1  0
 35 36  1  0
 35 37  1  0
 38 36  1  0
 37 39  1  0
 38 40  1  0
 38 41  1  0
 40 42  1  0
 40 43  1  0
 41 44  1  0
 45 42  1  0
 42 46  1  0
 44 47  1  0
 45 48  1  0
 46 49  1  0
 48 50  1  0
 48 51  1  0
 49 52  1  0
 50 53  1  0
 50 54  1  0
 51 55  1  0
 53 56  1  0
 56 57  1  0
 56 58  1  0
 57 59  1  0
 59 60  1  0
 60 61  2  0
 60 62  1  0
  6  7  1  0
 12 10  1  0
 15 18  1  0
 21 25  1  0
 22 24  1  0
 39 40  1  0
 44 45  1  0
 49 50  1  0
 53 55  1  0
  3 63  1  0
  4 64  1  0
  4 65  1  0
  6 66  1  0
  6 67  1  0
  8 68  1  0
  8 69  1  0
 10 70  1  0
 10 71  1  0
 11 72  1  0
 12 73  1  0
 14 74  1  0
 14 75  1  0
 15 76  1  0
 16 77  1  0
 17 78  1  0
 19 79  1  0
 19 80  1  0
 20 81  1  0
 21 82  1  0
 23 83  1  0
 23 84  1  0
 23 85  1  0
 24 86  1  0
 24 87  1  0
 26 88  1  0
 30 89  1  0
 30 90  1  0
 31 91  1  0
 31 92  1  0
 31 93  1  0
 32 94  1  0
 32 95  1  0
 32 96  1  0
 33 97  1  0
 33 98  1  0
 35 99  1  0
 36100  1  0
 36101  1  0
 37102  1  0
 37103  1  0
 38104  1  0
 39105  1  0
 39106  1  0
 41107  1  0
 41108  1  0
 42109  1  0
 43110  1  0
 43111  1  0
 43112  1  0
 44113  1  0
 45114  1  0
 46115  1  0
 46116  1  0
 47117  1  0
 48118  1  0
 49119  1  0
 51120  1  0
 51121  1  0
 52122  1  0
 53123  1  0
 54124  1  0
 54125  1  0
 54126  1  0
 55127  1  0
 55128  1  0
 56129  1  0
 57130  1  0
 57131  1  0
 58132  1  0
 58133  1  0
 58134  1  0
 59135  1  0
 59136  1  0
 62137  1  0
M  END
> <Name>
CHEMBL219684

> <IC50 nM>
1.2

> <Molecule_ChEMBL_ID>
CHEMBL219684

> <Smiles>
CC#C[C@]1(O)CC[C@H]2[C@@H]3CCC4=CC(=O)CCC4=C3[C@@H](c3ccc(N(C)CCO[C@H]4CC[C@@]5(C)[C@@H](C4)C[C@@H](O)[C@@H]4[C@@H]5C[C@H](O)[C@]5(C)[C@@H]([C@H](C)CCC(=O)O)CC[C@@H]45)cc3)C[C@@]21C

$$$$
CHEMBL220955
  SciTegic08162514323D

 73 78  0  0  1  0            999 V2000
   -5.9650   -3.5470    0.0100 O   0  0
   -4.7670   -3.3930   -0.0510 C   0  0
   -3.9330   -3.5040    1.1540 C   0  0
   -4.0740   -3.0840   -1.3500 C   0  0
   -2.6560   -3.0630    1.1930 C   0  0
   -2.9000   -2.1060   -1.1860 C   0  0
   -2.0230   -2.3630    0.0390 C   0  0
   -1.8550   -3.2850    2.4570 C   0  0
   -0.7280   -1.9450    0.0920 C   0  0
   -0.3750   -3.4590    2.1270 C   0  0
   -0.0780   -1.1190   -1.0220 C   0  0  1  0  0  0
    0.1470   -2.2680    1.3050 C   0  0  1  0  0  0
   -0.3380    0.3340   -0.8090 C   0  0
    1.4240   -1.4160   -1.2360 C   0  0
    1.6040   -2.5720    0.9220 C   0  0  1  0  0  0
   -1.0720    0.7620    0.3100 C   0  0
    0.1530    1.2790   -1.7270 C   0  0
    2.2310   -1.4530    0.0760 C   0  0  1  0  0  0
    2.6100   -2.7170    2.0680 C   0  0
   -1.3180    2.1310    0.5140 C   0  0
   -0.0900    2.6480   -1.5270 C   0  0
    3.7110   -1.9140    0.0190 C   0  0  2  0  0  0
    2.1430   -0.1110    0.8260 C   0  0
    3.9710   -2.3030    1.4880 C   0  0
   -0.8260    3.0780   -0.4060 C   0  0
    4.5710   -0.8560   -0.3730 O   0  0
    3.9460   -3.0510   -0.8850 C   0  0
   -1.0800    4.4960   -0.1990 C   0  0
    4.1470   -3.9670   -1.6150 C   0  0
   -0.5900    5.4430   -1.1170 C   0  0
   -1.8160    4.9260    0.9220 C   0  0
    4.3950   -5.0920   -2.5140 C   0  0
   -0.8340    6.8130   -0.9140 C   0  0
   -2.0580    6.2950    1.1210 C   0  0
   -1.5700    7.2420    0.2030 C   0  0
   -1.7990    8.5250    0.3930 O   0  0
   -1.2240    9.4470   -0.5230 C   0  0
   -4.3650   -3.9590    2.0330 H   0  0
   -4.7910   -2.6880   -2.0700 H   0  0
   -3.7070   -4.0240   -1.7680 H   0  0
   -2.3280   -2.1800   -2.1060 H   0  0
   -3.2810   -1.0880   -1.1310 H   0  0
   -1.9920   -2.4320    3.1190 H   0  0
   -2.2170   -4.1640    2.9920 H   0  0
    0.1920   -3.5610    3.0530 H   0  0
   -0.2360   -4.3890    1.5740 H   0  0
   -0.5290   -1.3460   -1.9810 H   0  0
    0.1310   -1.3890    1.9550 H   0  0
    1.4960   -2.3830   -1.7360 H   0  0
    1.8670   -0.6970   -1.9260 H   0  0
    1.6100   -3.4920    0.3520 H   0  0
   -1.4530    0.0390    1.0190 H   0  0
    0.7190    0.9570   -2.5880 H   0  0
    2.6250   -3.7270    2.4490 H   0  0
    2.3460   -2.0660    2.8890 H   0  0
   -1.8850    2.4430    1.3790 H   0  0
    0.2950    3.3610   -2.2420 H   0  0
    1.1210    0.1190    1.1330 H   0  0
    2.4900    0.7050    0.1930 H   0  0
    2.7640   -0.1290    1.7210 H   0  0
    4.3420   -1.4590    2.0590 H   0  0
    4.7090   -3.0860    1.6000 H   0  0
    4.2390   -0.5140   -1.2190 H   0  0
   -0.0210    5.1330   -1.9830 H   0  0
   -2.2010    4.2130    1.6390 H   0  0
    5.4650   -5.2890   -2.5840 H   0  0
    4.0160   -4.8690   -3.5120 H   0  0
    3.8990   -5.9880   -2.1430 H   0  0
   -0.4550    7.5350   -1.6230 H   0  0
   -2.6250    6.6190    1.9820 H   0  0
   -1.5530   10.4490   -0.2500 H   0  0
   -0.1480    9.2810   -0.5470 H   0  0
   -1.6170    9.2290   -1.5180 H   0  0
  1  2  2  0
  2  3  1  0
  2  4  1  0
  3  5  2  0
  4  6  1  0
  5  7  1  0
  5  8  1  0
  7  9  2  0
  8 10  1  0
  9 11  1  0
  9 12  1  0
 11 13  1  0
 11 14  1  0
 12 15  1  0
 13 16  2  0
 13 17  1  0
 14 18  1  0
 15 19  1  0
 16 20  1  0
 17 21  2  0
 18 22  1  0
 18 23  1  0
 19 24  1  0
 20 25  2  0
 22 26  1  0
 22 27  1  0
 25 28  1  0
 27 29  3  0
 28 30  2  0
 28 31  1  0
 29 32  1  0
 30 33  1  0
 31 34  2  0
 33 35  2  0
 35 36  1  0
 36 37  1  0
  6  7  1  0
 12 10  1  0
 15 18  1  0
 21 25  1  0
 22 24  1  0
 34 35  1  0
  3 38  1  0
  4 39  1  0
  4 40  1  0
  6 41  1  0
  6 42  1  0
  8 43  1  0
  8 44  1  0
 10 45  1  0
 10 46  1  0
 11 47  1  0
 12 48  1  0
 14 49  1  0
 14 50  1  0
 15 51  1  0
 16 52  1  0
 17 53  1  0
 19 54  1  0
 19 55  1  0
 20 56  1  0
 21 57  1  0
 23 58  1  0
 23 59  1  0
 23 60  1  0
 24 61  1  0
 24 62  1  0
 26 63  1  0
 30 64  1  0
 31 65  1  0
 32 66  1  0
 32 67  1  0
 32 68  1  0
 33 69  1  0
 34 70  1  0
 37 71  1  0
 37 72  1  0
 37 73  1  0
M  END
> <Name>
CHEMBL220955

> <IC50 nM>
0.7

> <Molecule_ChEMBL_ID>
CHEMBL220955

> <Smiles>
CC#C[C@]1(O)CC[C@H]2[C@@H]3CCC4=CC(=O)CCC4=C3[C@@H](c3ccc(-c4ccc(OC)cc4)cc3)C[C@@]21C

$$$$
CHEMBL1762210
  SciTegic08162514323D

 52 55  0  0  1  0            999 V2000
    0.0370    1.5760    0.0600 F   0  0
   -0.2150    0.3280    0.4650 C   0  0
   -1.5640   -0.0590    0.6820 C   0  0
    0.8440   -0.6090    0.6870 C   0  0
   -1.8730   -1.3690    1.1210 C   0  0
   -2.6430    0.8950    0.4570 C   0  0
    0.5200   -1.9450    1.0900 C   0  0
    2.2990   -0.2310    0.5210 C   0  0
   -3.1330   -1.7440    1.3460 F   0  0
   -0.8340   -2.3030    1.3220 C   0  0
   -3.6290    0.6660   -0.5370 C   0  0
   -2.7170    2.0780    1.2380 C   0  0
    1.4810   -2.8950    1.2480 N   0  0
    2.6860    0.8960    0.0230 N   0  0
    3.3420   -1.2440    0.9710 C   0  0  3  0  0  0
   -3.8240   -0.3710   -1.4400 N   0  0
   -4.6450    1.5660   -0.7500 C   0  0
   -3.7700    3.0060    1.0140 C   0  0
    2.8670   -2.7030    0.7400 C   0  0
    4.0680    1.2500   -0.1270 O   0  0
    3.6250   -1.0230    2.3440 O   0  0
   -4.9820   -0.0590   -2.1930 C   0  0
   -5.4840    1.1740   -1.7360 C   0  0
   -4.7440    2.7560    0.0140 C   0  0
    3.8050   -3.7150    1.4160 C   0  0
    2.8630   -3.0060   -0.7640 C   0  0
    4.0570    2.5490   -0.7030 C   0  0
   -6.7110    1.8950   -2.2560 C   0  0
    5.4920    3.0290   -0.9100 C   0  0
   -1.0920   -3.2990    1.6540 H   0  0
   -1.9820    2.2830    2.0040 H   0  0
    1.2560   -3.7660    1.6910 H   0  0
    4.2850   -1.1020    0.4410 H   0  0
   -3.2620   -1.1820   -1.5430 H   0  0
   -3.8260    3.9060    1.6090 H   0  0
    4.0670   -0.1620    2.4100 H   0  0
   -5.3810   -0.6880   -2.9770 H   0  0
   -5.5430    3.4670   -0.1520 H   0  0
    3.7850   -3.6250    2.5020 H   0  0
    4.8340   -3.5660    1.0860 H   0  0
    3.5200   -4.7360    1.1600 H   0  0
    2.1950   -2.3420   -1.3110 H   0  0
    2.5430   -4.0310   -0.9490 H   0  0
    3.8630   -2.8890   -1.1820 H   0  0
    3.5270    2.4960   -1.6540 H   0  0
    3.5200    3.2150   -0.0270 H   0  0
   -6.9220    2.8420   -1.7560 H   0  0
   -7.5860    1.2540   -2.1350 H   0  0
   -6.5900    2.1000   -3.3180 H   0  0
    5.5060    4.0220   -1.3590 H   0  0
    6.0290    3.0630    0.0390 H   0  0
    6.0330    2.3540   -1.5740 H   0  0
  1  2  1  0
  2  3  2  0
  2  4  1  0
  3  5  1  0
  3  6  1  0
  4  7  2  0
  4  8  1  0
  5  9  1  0
  5 10  2  0
  6 11  2  0
  6 12  1  0
  7 13  1  0
  8 14  2  0
  8 15  1  0
 11 16  1  0
 11 17  1  0
 12 18  2  0
 13 19  1  0
 14 20  1  0
 15 21  1  0
 16 22  1  0
 17 23  1  0
 17 24  2  0
 19 25  1  0
 19 26  1  0
 20 27  1  0
 23 28  1  0
 27 29  1  0
  7 10  1  0
 15 19  1  0
 18 24  1  0
 22 23  2  0
 10 30  1  0
 12 31  1  0
 13 32  1  0
 15 33  1  0
 16 34  1  0
 18 35  1  0
 21 36  1  0
 22 37  1  0
 24 38  1  0
 25 39  1  0
 25 40  1  0
 25 41  1  0
 26 42  1  0
 26 43  1  0
 26 44  1  0
 27 45  1  0
 27 46  1  0
 28 47  1  0
 28 48  1  0
 28 49  1  0
 29 50  1  0
 29 51  1  0
 29 52  1  0
M  END
> <Name>
CHEMBL1762210

> <IC50 nM>
5.2

> <Molecule_ChEMBL_ID>
CHEMBL1762210

> <Smiles>
CCO/N=C1/c2c(cc(F)c(-c3cccc4c(C)c[nH]c34)c2F)NC(C)(C)C1O

$$$$
CHEMBL1644755
  SciTegic08162514323D

 49 52  0  0  0  0            999 V2000
   -1.1560   -1.6390   -1.8260 Cl  0  0
   -0.6150   -0.7030   -0.4710 C   0  0
   -0.1460   -1.3810    0.6890 C   0  0
   -0.6290    0.7360   -0.5020 C   0  0
   -0.1230   -2.8360    0.7810 C   0  0
    0.3160   -0.6580    1.8050 C   0  0
   -0.1070    1.4610    0.6250 C   0  0
   -1.1800    1.4730   -1.6950 C   0  0
    1.1040   -3.5490    0.8300 C   0  0
   -1.3420   -3.5640    0.8200 C   0  0
    0.3400    0.7500    1.7790 C   0  0
   -0.0270    2.8200    0.6110 N   0  0
   -1.2360    2.9830   -1.5390 C   0  0
   -2.6250    1.0270   -1.9750 C   0  0
   -0.2970    1.2150   -2.9220 C   0  0
    2.4300   -3.1370    0.8100 N   0  0
    1.1210   -4.9180    0.9140 C   0  0
   -1.3140   -4.9820    0.9060 C   0  0
    0.8480    1.4410    2.9820 C   0  0
   -0.2600    3.6450   -0.5960 C   0  0
   -2.0410    3.6450   -2.1560 O   0  0
    3.2310   -4.3030    0.8870 C   0  0
   -0.0760   -5.6740    0.9550 C   0  0
    2.3770   -5.4180    0.9510 C   0  0
   -0.8010    5.0140   -0.1580 C   0  0
    1.0720    3.8460   -1.3240 C   0  0
    0.6620   -1.1760    2.6910 H   0  0
   -2.2950   -3.0550    0.7850 H   0  0
    0.2270    3.3220    1.4410 H   0  0
   -3.1230    0.6760   -1.0720 H   0  0
   -2.6450    0.2150   -2.7030 H   0  0
   -3.2110    1.8520   -2.3810 H   0  0
    0.7560    1.1290   -2.6540 H   0  0
   -0.3930    2.0250   -3.6450 H   0  0
   -0.5900    0.2890   -3.4200 H   0  0
    2.7600   -2.2010    0.7560 H   0  0
   -2.2400   -5.5370    0.9370 H   0  0
    1.0760    0.7070    3.7540 H   0  0
    1.7090    2.0530    2.7150 H   0  0
    0.0760    2.1060    3.3730 H   0  0
    4.3130   -4.2930    0.8900 H   0  0
   -0.0590   -6.7520    1.0190 H   0  0
    2.6760   -6.4570    1.0150 H   0  0
   -1.7580    4.9280    0.3530 H   0  0
   -0.9410    5.6640   -1.0220 H   0  0
   -0.1020    5.5040    0.5190 H   0  0
    1.5390    2.8970   -1.5880 H   0  0
    1.7730    4.3990   -0.6990 H   0  0
    0.9280    4.4120   -2.2440 H   0  0
  1  2  1  0
  2  3  2  0
  2  4  1  0
  3  5  1  0
  3  6  1  0
  4  7  2  0
  4  8  1  0
  5  9  2  0
  5 10  1  0
  6 11  2  0
  7 12  1  0
  8 13  1  0
  8 14  1  0
  8 15  1  0
  9 16  1  0
  9 17  1  0
 10 18  2  0
 11 19  1  0
 12 20  1  0
 13 21  2  0
 16 22  1  0
 17 23  2  0
 17 24  1  0
 20 25  1  0
 20 26  1  0
  7 11  1  0
 13 20  1  0
 18 23  1  0
 22 24  2  0
  6 27  1  0
 10 28  1  0
 12 29  1  0
 14 30  1  0
 14 31  1  0
 14 32  1  0
 15 33  1  0
 15 34  1  0
 15 35  1  0
 16 36  1  0
 18 37  1  0
 19 38  1  0
 19 39  1  0
 19 40  1  0
 22 41  1  0
 23 42  1  0
 24 43  1  0
 25 44  1  0
 25 45  1  0
 25 46  1  0
 26 47  1  0
 26 48  1  0
 26 49  1  0
M  END
> <Name>
CHEMBL1644755

> <IC50 nM>
4.7

> <Molecule_ChEMBL_ID>
CHEMBL1644755

> <Smiles>
Cc1cc(-c2cccc3cc[nH]c23)c(Cl)c2c1NC(C)(C)C(=O)C2(C)C

$$$$
CHEMBL2023620
  SciTegic08162514323D

 76 82  0  0  1  0            999 V2000
    6.4960   -0.9730   -0.5740 S   0  0
    8.0940   -0.5330   -0.2480 C   0  0
    5.8340   -1.2150    1.0270 C   0  0
    8.4870   -0.4670    1.0610 N   0  0
    8.9140   -0.2640   -1.3090 N   0  0
    4.3850   -1.6090    0.9160 C   0  0
    9.7780   -0.1110    1.3280 C   0  0
   10.2070    0.0920   -1.0510 C   0  0
    4.0690   -2.7500    0.6700 O   0  0
    3.3400   -0.5390    1.1230 C   0  0  2  0  0  0
   10.6720    0.1780    0.2770 C   0  0
    3.1390   -0.4320    2.5230 O   0  0
    1.9920   -0.8050    0.4120 C   0  0  2  0  0  0
    3.7500    0.8440    0.5570 C   0  0
    1.3790    0.6110    0.4920 C   0  0  1  0  0  0
    1.0220   -1.8610    0.9880 C   0  0
    2.3240   -1.1760   -1.0450 C   0  0
    2.4980    1.4820   -0.0660 C   0  0
   -0.0120    0.5450   -0.1450 C   0  0  1  0  0  0
   -0.2010   -1.2380    1.6970 C   0  0  1  0  0  0
   -0.9760   -0.1560    0.8520 C   0  0  2  0  0  0
   -0.5780    1.9020   -0.5430 C   0  0
   -1.0060   -2.2830    2.1950 O   0  0
   -2.3360   -0.5080    0.1440 C   0  0  2  0  0  0
   -1.8870    1.6880   -1.3070 C   0  0
   -2.8570    0.7310   -0.6350 C   0  0
   -3.3830   -1.0720    1.1780 C   0  0
   -2.0840   -1.5900   -0.9160 C   0  0
   -4.1780    0.9960   -0.7660 C   0  0
   -4.8440   -0.8610    0.8070 C   0  0
   -5.1580    0.1350   -0.0940 C   0  0
   -5.9260   -1.5780    1.3140 C   0  0
   -6.5140    0.0610   -0.1390 N   0  0
   -6.9410   -0.9410    0.6760 N   0  0
   -7.3280    0.8540   -0.8810 C   0  0
   -7.0180    1.1230   -2.2290 C   0  0
   -8.4860    1.4120   -0.3070 C   0  0
   -7.8590    1.9430   -2.9960 C   0  0
   -9.3280    2.2340   -1.0760 C   0  0
   -9.0160    2.5000   -2.4200 C   0  0
   -9.8140    3.2790   -3.1470 F   0  0
    6.3930   -2.0000    1.5370 H   0  0
    5.9240   -0.2930    1.6020 H   0  0
   10.1160   -0.0510    2.3540 H   0  0
   10.8750    0.3090   -1.8690 H   0  0
   11.6940    0.4590    0.4860 H   0  0
    3.9710   -0.1110    2.9060 H   0  0
    4.1740    1.4860    1.3140 H   0  0
    4.5080    0.7440   -0.2070 H   0  0
    1.2420    0.9320    1.5180 H   0  0
    1.5590   -2.5290    1.6640 H   0  0
    0.6510   -2.5020    0.1850 H   0  0
    3.0390   -0.4840   -1.4880 H   0  0
    1.4240   -1.1660   -1.6600 H   0  0
    2.7540   -2.1780   -1.1000 H   0  0
    2.3830    2.5200    0.2130 H   0  0
    2.5290    1.4360   -1.1470 H   0  0
    0.0570   -0.0450   -1.0590 H   0  0
    0.1800   -0.7420    2.5900 H   0  0
   -1.2500    0.5960    1.5960 H   0  0
   -0.7460    2.5180    0.3400 H   0  0
    0.1270    2.4430   -1.1760 H   0  0
   -0.4780   -2.7600    2.8550 H   0  0
   -1.6580    1.2970   -2.2990 H   0  0
   -2.3570    2.6600   -1.4670 H   0  0
   -3.2560   -2.1460    1.3200 H   0  0
   -3.2360   -0.6030    2.1520 H   0  0
   -3.0270   -1.9450   -1.3340 H   0  0
   -1.4630   -1.2010   -1.7230 H   0  0
   -1.5700   -2.4450   -0.4790 H   0  0
   -4.5160    1.8320   -1.3610 H   0  0
   -5.9880   -2.4040    2.0120 H   0  0
   -6.1330    0.7030   -2.6900 H   0  0
   -8.7420    1.2190    0.7270 H   0  0
   -7.6170    2.1470   -4.0290 H   0  0
  -10.2150    2.6580   -0.6290 H   0  0
  1  2  1  0
  1  3  1  0
  2  4  2  0
  2  5  1  0
  3  6  1  0
  4  7  1  0
  5  8  2  0
  6  9  2  0
  6 10  1  0
  7 11  2  0
 10 12  1  0
 10 13  1  0
 10 14  1  0
 13 15  1  0
 13 16  1  0
 13 17  1  0
 14 18  1  0
 15 19  1  0
 16 20  1  0
 21 19  1  0
 19 22  1  0
 20 23  1  0
 21 24  1  0
 22 25  1  0
 24 26  1  0
 24 27  1  0
 24 28  1  0
 26 29  2  0
 27 30  1  0
 29 31  1  0
 30 32  1  0
 31 33  1  0
 32 34  2  0
 33 35  1  0
 35 36  2  0
 35 37  1  0
 36 38  1  0
 37 39  2  0
 38 40  2  0
 40 41  1  0
  8 11  1  0
 15 18  1  0
 20 21  1  0
 25 26  1  0
 30 31  2  0
 33 34  1  0
 39 40  1  0
  3 42  1  0
  3 43  1  0
  7 44  1  0
  8 45  1  0
 11 46  1  0
 12 47  1  0
 14 48  1  0
 14 49  1  0
 15 50  1  0
 16 51  1  0
 16 52  1  0
 17 53  1  0
 17 54  1  0
 17 55  1  0
 18 56  1  0
 18 57  1  0
 19 58  1  0
 20 59  1  0
 21 60  1  0
 22 61  1  0
 22 62  1  0
 23 63  1  0
 25 64  1  0
 25 65  1  0
 27 66  1  0
 27 67  1  0
 28 68  1  0
 28 69  1  0
 28 70  1  0
 29 71  1  0
 32 72  1  0
 36 73  1  0
 37 74  1  0
 38 75  1  0
 39 76  1  0
M  END
> <Name>
CHEMBL2023620

> <IC50 nM>
0.6

> <Molecule_ChEMBL_ID>
CHEMBL2023620

> <Smiles>
C[C@]12Cc3cnn(-c4ccc(F)cc4)c3C=C1CC[C@@H]1[C@@H]2[C@@H](O)C[C@@]2(C)[C@H]1CC[C@]2(O)C(=O)CSc1ncccn1

$$$$
CHEMBL5413057
  SciTegic08162514323D

 74 79  0  0  1  0            999 V2000
   -2.2090    0.4370   -0.4180 F   0  0
   -2.2230    0.6130    0.9510 C   0  0  2  0  0  0
   -3.7250    0.4900    1.3890 C   0  0  2  0  0  0
   -1.5650    2.0140    1.1700 C   0  0  1  0  0  0
   -1.3690   -0.5370    1.5680 C   0  0  2  0  0  0
   -4.2360   -0.9120    1.0410 C   0  0
   -4.5670    1.6050    0.7750 C   0  0
   -3.8910    0.6270    2.9080 C   0  0
   -1.7320    2.4590    2.5020 O   0  0
   -0.0550    2.0470    0.8220 C   0  0
    0.0840   -0.4240    1.0740 C   0  0  1  0  0  0
   -1.9320   -1.9240    1.2010 C   0  0
   -5.3500   -1.1110    0.3010 C   0  0
   -3.4120   -2.0720    1.5800 C   0  0  2  0  0  0
   -5.6660    1.3750    0.0330 C   0  0
    0.7360    0.9060    1.4900 C   0  0  1  0  0  0
    1.0880   -1.4530    1.6000 C   0  0
   -6.1290    0.0100   -0.2320 C   0  0
   -3.8540   -3.2890    1.1170 F   0  0
    2.2050    0.6870    1.0530 C   0  0  1  0  0  0
    0.7400    1.0470    3.0220 C   0  0
    2.4390   -0.8280    1.2230 C   0  0  2  0  0  0
   -7.1330   -0.1860   -0.8770 O   0  0
    2.3690    0.8480   -0.3460 O   0  0
    3.2340    1.5570    1.7440 C   0  0
    2.8240   -1.2560   -0.0720 O   0  0
    3.2290   -0.1480   -0.8400 C   0  0  1  0  0  0
    4.1020    1.0660    2.4300 O   0  0
    3.1450    3.0470    1.5550 C   0  0
    2.9770   -0.3950   -2.3240 C   0  0  3  0  0  0
    4.3850    3.6370    1.8730 O   0  0
    3.9360   -1.4820   -2.8320 C   0  0
    1.5080   -0.8010   -2.5310 C   0  0
    3.6560   -1.8340   -4.3010 C   0  0
    1.2250   -1.1520   -4.0000 C   0  0
    2.1880   -2.2360   -4.5200 C   0  0  3  0  0  0
    1.9390   -2.4940   -5.9340 N   0  0
   -2.0650    2.7560    0.5510 H   0  0
   -1.3870   -0.4470    2.6560 H   0  0
   -4.2770    2.6330    0.9390 H   0  0
   -4.8500    0.2360    3.2480 H   0  0
   -3.8320    1.6720    3.2110 H   0  0
   -3.1060    0.0840    3.4320 H   0  0
   -1.4430    3.3850    2.5330 H   0  0
    0.3830    3.0120    1.0820 H   0  0
    0.0370    1.9710   -0.2620 H   0  0
    0.0760   -0.4960   -0.0060 H   0  0
   -1.3560   -2.7030    1.7010 H   0  0
   -1.8110   -2.0960    0.1290 H   0  0
   -5.6920   -2.1110    0.0780 H   0  0
   -3.5000   -2.0780    2.6680 H   0  0
   -6.2170    2.2110   -0.3710 H   0  0
    1.0040   -1.5590    2.6700 H   0  0
    0.9370   -2.4340    1.1700 H   0  0
   -0.2560    0.8670    3.4280 H   0  0
    1.4390    0.3420    3.4710 H   0  0
    1.0450    2.0510    3.3150 H   0  0
    3.2250   -1.0700    1.9260 H   0  0
    4.2560    0.1030   -0.6110 H   0  0
    2.3890    3.4610    2.2250 H   0  0
    2.9160    3.2730    0.5140 H   0  0
    3.1660    0.5270   -2.8730 H   0  0
    4.2890    4.5920    1.7380 H   0  0
    3.8320   -2.3810   -2.2230 H   0  0
    4.9690   -1.1520   -2.7230 H   0  0
    1.2710   -1.6640   -1.9040 H   0  0
    0.8460    0.0040   -2.2110 H   0  0
    3.9020   -0.9730   -4.9240 H   0  0
    4.3200   -2.6430   -4.6130 H   0  0
    0.1910   -1.4840   -4.1020 H   0  0
    1.3220   -0.2500   -4.6040 H   0  0
    1.9960   -3.1600   -3.9710 H   0  0
    0.9630   -2.8050   -6.0370 H   0  0
    2.0530   -1.6090   -6.4470 H   0  0
  2  1  1  0
  2  3  1  0
  2  4  1  0
  2  5  1  0
  3  6  1  0
  3  7  1  0
  3  8  1  0
  4  9  1  0
  4 10  1  0
  5 11  1  0
  5 12  1  0
  6 13  2  0
  6 14  1  0
  7 15  2  0
 10 16  1  0
 11 17  1  0
 13 18  1  0
 14 19  1  0
 16 20  1  0
 16 21  1  0
 17 22  1  0
 18 23  2  0
 20 24  1  0
 20 25  1  0
 22 26  1  0
 24 27  1  0
 25 28  2  0
 25 29  1  0
 27 30  1  0
 29 31  1  0
 30 32  1  0
 30 33  1  0
 32 34  1  0
 33 35  1  0
 34 36  1  0
 36 37  1  0
 11 16  1  0
 12 14  1  0
 15 18  1  0
 20 22  1  0
 26 27  1  0
 35 36  1  0
  4 38  1  0
  5 39  1  0
  7 40  1  0
  8 41  1  0
  8 42  1  0
  8 43  1  0
  9 44  1  0
 10 45  1  0
 10 46  1  0
 11 47  1  0
 12 48  1  0
 12 49  1  0
 13 50  1  0
 14 51  1  0
 15 52  1  0
 17 53  1  0
 17 54  1  0
 21 55  1  0
 21 56  1  0
 21 57  1  0
 22 58  1  0
 27 59  1  0
 29 60  1  0
 29 61  1  0
 30 62  1  0
 31 63  1  0
 32 64  1  0
 32 65  1  0
 33 66  1  0
 33 67  1  0
 34 68  1  0
 34 69  1  0
 35 70  1  0
 35 71  1  0
 36 72  1  0
 37 73  1  0
 37 74  1  0
M  END
> <Name>
CHEMBL5413057

> <IC50 nM>
63

> <Molecule_ChEMBL_ID>
CHEMBL5413057

> <Smiles>
C[C@]12C=CC(=O)C=C1[C@@H](F)C[C@H]1[C@@H]3C[C@H]4O[C@@H](C5CCC(N)CC5)O[C@@]4(C(=O)CO)[C@@]3(C)C[C@H](O)[C@@]12F

$$$$
CHEMBL442744
  SciTegic08162514323D

 51 53  0  0  1  0            999 V2000
   -2.6540    5.0430   -0.6720 S   0  0
   -2.3320    5.2190    0.7340 O   0  0
   -1.6910    5.6660   -1.5630 O   0  0
   -2.6450    3.4510   -0.9790 N   0  0
   -4.2700    5.7440   -0.9840 C   0  0
   -1.5180    2.7460   -0.8180 C   0  0
   -1.4960    1.3570   -1.0940 C   0  0
   -0.3320    3.3770   -0.3730 C   0  0
   -0.3070    0.6040   -0.9200 C   0  0
    0.8610    2.6370   -0.2090 C   0  0
    0.8890    1.2360   -0.4690 C   0  0
   -0.3130   -0.8550   -1.1970 C   0  0  1  0  0  0
    2.1070    0.4020   -0.3110 C   0  0
    0.9900   -1.3520   -1.5410 O   0  0
   -0.8340   -1.6370    0.0140 C   0  0
    2.0940   -0.8910   -0.9180 C   0  0
    3.2810    0.8130    0.4000 C   0  0
   -0.9880   -3.1310   -0.2700 C   0  0
    3.2420   -1.7130   -0.8870 C   0  0
    3.3590    1.9750    1.0610 O   0  0
    4.4200   -0.0290    0.4340 C   0  0
   -1.3890   -3.9280    0.9730 C   0  0
    4.4040   -1.2830   -0.2130 C   0  0
    4.6410    2.4200    1.4780 C   0  0
   -1.5200   -5.4260    0.6930 C   0  0
   -1.9140   -6.2250    1.9370 C   0  0
   -3.4810    2.9960   -1.2870 H   0  0
   -4.3380    6.8170   -0.7950 H   0  0
   -5.0100    5.2480   -0.3570 H   0  0
   -4.5450    5.5720   -2.0250 H   0  0
   -2.3890    0.8550   -1.4400 H   0  0
   -0.3200    4.4360   -0.1540 H   0  0
    1.7270    3.1910    0.1130 H   0  0
   -0.9610   -1.0660   -2.0510 H   0  0
   -0.1950   -1.4730    0.8810 H   0  0
   -1.7740   -1.2130    0.3690 H   0  0
   -1.6970   -3.2990   -1.0800 H   0  0
   -0.0780   -3.5350   -0.7110 H   0  0
    3.2320   -2.6760   -1.3750 H   0  0
    5.3090    0.2870    0.9610 H   0  0
   -0.6880   -3.7480    1.7870 H   0  0
   -2.3090   -3.5350    1.4020 H   0  0
    5.2810   -1.9140   -0.1890 H   0  0
    4.7070    3.4470    1.8400 H   0  0
    5.3260    2.3200    0.6370 H   0  0
    4.9880    1.7640    2.2730 H   0  0
   -2.2230   -5.6080   -0.1190 H   0  0
   -0.6000   -5.8200    0.2600 H   0  0
   -2.1040   -7.2680    1.6820 H   0  0
   -1.1250   -6.1800    2.6890 H   0  0
   -2.8220   -5.8200    2.3830 H   0  0
  1  2  2  0
  1  3  2  0
  1  4  1  0
  1  5  1  0
  4  6  1  0
  6  7  2  0
  6  8  1  0
  7  9  1  0
  8 10  2  0
  9 11  2  0
  9 12  1  0
 11 13  1  0
 12 14  1  0
 12 15  1  0
 13 16  2  0
 13 17  1  0
 15 18  1  0
 16 19  1  0
 17 20  1  0
 17 21  2  0
 18 22  1  0
 19 23  2  0
 20 24  1  0
 22 25  1  0
 25 26  1  0
 10 11  1  0
 14 16  1  0
 21 23  1  0
  4 27  1  0
  5 28  1  0
  5 29  1  0
  5 30  1  0
  7 31  1  0
  8 32  1  0
 10 33  1  0
 12 34  1  0
 15 35  1  0
 15 36  1  0
 18 37  1  0
 18 38  1  0
 19 39  1  0
 21 40  1  0
 22 41  1  0
 22 42  1  0
 23 43  1  0
 24 44  1  0
 24 45  1  0
 24 46  1  0
 25 47  1  0
 25 48  1  0
 26 49  1  0
 26 50  1  0
 26 51  1  0
M  END
> <Name>
CHEMBL442744

> <IC50 nM>
21

> <Molecule_ChEMBL_ID>
CHEMBL442744

> <Smiles>
CCCCCC1Oc2cccc(OC)c2-c2ccc(NS(C)(=O)=O)cc21

$$$$
CHEMBL66598
  SciTegic08162514323D

 49 52  0  0  1  0            999 V2000
   -3.0450    3.9590   -0.8710 S   0  0
   -2.7130    4.1270    0.5330 O   0  0
   -2.0880    4.5900   -1.7640 O   0  0
   -3.0330    2.3710   -1.1880 N   0  0
   -4.6620    4.6600   -1.1680 C   0  0
   -1.9060    1.6620   -1.0230 C   0  0
   -1.8870    0.2760   -1.2990 C   0  0
   -0.7230    2.2930   -0.5760 C   0  0
   -0.6990   -0.4820   -1.1210 C   0  0
    0.4690    1.5510   -0.4080 C   0  0
    0.4980    0.1510   -0.6700 C   0  0
   -0.7050   -1.9430   -1.4040 C   0  0  1  0  0  0
    1.7190   -0.6830   -0.5120 C   0  0
    0.6000   -2.4490   -1.7290 O   0  0
   -1.2480   -2.6830   -0.2340 C   0  0
    1.7050   -1.9780   -1.1130 C   0  0
    2.8940   -0.2690    0.1930 C   0  0
   -2.3460   -3.5470   -0.3950 C   0  0
   -0.6620   -2.5190    1.0350 C   0  0
    2.8550   -2.7990   -1.0860 C   0  0
    2.9730    0.8930    0.8520 O   0  0
    4.0350   -1.1070    0.2250 C   0  0
   -2.8580   -4.2460    0.7110 C   0  0
   -1.1760   -3.2210    2.1410 C   0  0
    4.0200   -2.3630   -0.4200 C   0  0
    4.1910    1.2070    1.5080 C   0  0
   -2.2740   -4.0840    1.9790 C   0  0
    4.0700    2.5720    2.1860 C   0  0
   -3.8670    1.9180   -1.5040 H   0  0
   -4.7310    5.7310   -0.9730 H   0  0
   -5.3990    4.1580   -0.5390 H   0  0
   -4.9440    4.4940   -2.2090 H   0  0
   -2.7810   -0.2240   -1.6450 H   0  0
   -0.7110    3.3520   -0.3570 H   0  0
    1.3340    2.1040   -0.0820 H   0  0
   -1.3500   -2.1560   -2.2580 H   0  0
   -2.7990   -3.6780   -1.3670 H   0  0
    0.1820   -1.8570    1.1660 H   0  0
    2.8440   -3.7640   -1.5720 H   0  0
    4.9240   -0.7870    0.7440 H   0  0
   -3.7010   -4.9100    0.5860 H   0  0
   -0.7270   -3.0940    3.1150 H   0  0
    4.8980   -2.9920   -0.4000 H   0  0
    4.3950    0.4280    2.2440 H   0  0
    4.9880    1.2170    0.7640 H   0  0
   -2.6660   -4.6210    2.8280 H   0  0
    4.9940    2.8280    2.7050 H   0  0
    3.8480    3.3480    1.4530 H   0  0
    3.2660    2.5670    2.9200 H   0  0
  1  2  2  0
  1  3  2  0
  1  4  1  0
  1  5  1  0
  4  6  1  0
  6  7  2  0
  6  8  1  0
  7  9  1  0
  8 10  2  0
  9 11  2  0
  9 12  1  0
 11 13  1  0
 12 14  1  0
 12 15  1  0
 13 16  2  0
 13 17  1  0
 15 18  2  0
 15 19  1  0
 16 20  1  0
 17 21  1  0
 17 22  2  0
 18 23  1  0
 19 24  2  0
 20 25  2  0
 21 26  1  0
 23 27  2  0
 26 28  1  0
 10 11  1  0
 14 16  1  0
 22 25  1  0
 24 27  1  0
  4 29  1  0
  5 30  1  0
  5 31  1  0
  5 32  1  0
  7 33  1  0
  8 34  1  0
 10 35  1  0
 12 36  1  0
 18 37  1  0
 19 38  1  0
 20 39  1  0
 22 40  1  0
 23 41  1  0
 24 42  1  0
 25 43  1  0
 26 44  1  0
 26 45  1  0
 27 46  1  0
 28 47  1  0
 28 48  1  0
 28 49  1  0
M  END
> <Name>
CHEMBL66598

> <IC50 nM>
81

> <Molecule_ChEMBL_ID>
CHEMBL66598

> <Smiles>
CCOc1cccc2c1-c1ccc(NS(C)(=O)=O)cc1C(c1ccccc1)O2

$$$$
CHEMBL551944
  SciTegic08162514323D

177186  0  0  1  0            999 V2000
    4.2190   -2.2580   -9.2520 S   0  0
    5.3180   -1.5290  -10.2930 C   0  0
    4.9590   -0.7540  -11.3580 N   0  0
    6.6740   -1.6430  -10.1720 N   0  0
    3.5330   -0.5240  -11.6350 C   0  0
    7.2340   -2.4340   -9.0670 C   0  0
    3.3520    0.3650  -12.8650 C   0  0
    7.2440   -1.6310   -7.7660 C   0  0
    1.5920    0.5920  -13.2500 S   0  0
    7.8090   -2.4200   -6.6620 N   0  0
    1.1460    1.6890  -11.8750 C   0  0
    7.8990   -1.8630   -5.4180 C   0  0
   -0.2620    2.1870  -12.0650 C   0  0
    7.5180   -0.7320   -5.2250 O   0  0
    8.4570   -2.6450   -4.3200 C   0  0
   -0.4790    3.2500  -12.6000 O   0  0
   -1.3950    1.3200  -11.5690 C   0  0  1  0  0  0
    9.5200   -3.4980   -4.4160 N   0  0
    7.9830   -2.6290   -3.0040 C   0  0
   -1.3870    1.4220  -10.1530 O   0  0
   -2.7870    1.7150  -12.1120 C   0  0  1  0  0  0
   -1.2830   -0.1640  -12.0260 C   0  0  2  0  0  0
    9.7210   -4.0240   -3.1760 C   0  0
   10.3030   -3.8010   -5.6230 C   0  0
    8.7850   -3.5040   -2.2790 C   0  0
   -3.5760    0.4470  -11.7310 C   0  0  2  0  0  0
   -3.5120    2.9730  -11.5740 C   0  0
   -2.6520    1.8380  -13.6410 C   0  0
   -2.7150   -0.6640  -12.3130 C   0  0
   -0.5590   -1.1000  -11.0550 C   0  0
    8.6700   -3.8200   -0.8480 N   0  0
   -5.0370    0.6820  -12.1330 C   0  0  2  0  0  0
   -4.6640    2.6890  -10.5780 C   0  0  2  0  0  0
    7.9180   -3.0240   -0.0310 C   0  0
   -5.6950    1.5680  -11.0280 C   0  0  2  0  0  0
   -5.8260   -0.5980  -12.4060 C   0  0
   -5.2600    3.9340  -10.2810 O   0  0
    7.3460   -2.0570   -0.4800 O   0  0
    7.8090   -3.3460    1.3850 C   0  0
   -5.8590    0.7680   -9.9140 F   0  0
   -7.1640    1.9690  -11.4460 C   0  0  1  0  0  0
   -7.2190   -0.2230  -12.9140 C   0  0
    8.8220   -3.8180    2.1700 N   0  0
    6.6450   -3.2150    2.1500 C   0  0
   -7.9260    0.7300  -11.9670 C   0  0
   -7.9450    2.6520  -10.3150 C   0  0
   -7.1090    2.9710  -12.6040 C   0  0
    8.3130   -3.9880    3.4220 C   0  0
   10.2050   -4.0960    1.7540 C   0  0
    6.9650   -3.6230    3.4390 C   0  0
   -9.1990    0.4490  -11.6150 C   0  0
   -9.2110    2.3440   -9.9790 C   0  0
    6.0590   -3.6620    4.5980 N   0  0
   -9.9360    1.2730  -10.6580 C   0  0
    6.5200   -4.0900    5.8110 C   0  0
  -11.1060    1.0660  -10.4280 O   0  0
    7.6700   -4.4380    5.9400 O   0  0
    5.6150   -4.1230    6.9530 C   0  0
    5.9260   -4.5940    8.1970 N   0  0
    4.2890   -3.6780    6.9380 C   0  0
    4.8130   -4.4510    8.9670 C   0  0
    7.2150   -5.1520    8.6310 C   0  0
    3.7810   -3.8850    8.2150 C   0  0
    2.4240   -3.5680    8.6840 N   0  0
    2.0680   -3.8320    9.9750 C   0  0
    2.8650   -4.3240   10.7400 O   0  0
    0.7190   -3.5160   10.4280 C   0  0
   -0.4220   -3.6800    9.6970 N   0  0
    0.3980   -2.9940   11.6880 C   0  0
   -1.4590   -3.2700   10.4770 C   0  0
   -0.5220   -4.2010    8.3240 C   0  0
   -0.9820   -2.8380   11.7150 C   0  0
   -1.7850   -2.3200   12.8340 N   0  0
   -3.1350   -2.5220   12.8560 C   0  0
   -3.6780   -3.1230   11.9590 O   0  0
   -3.9280   -1.9790   14.0160 C   0  0
   -4.0120   -0.4530   14.0020 C   0  0
   -4.8150    0.1050   15.1780 C   0  0
   -4.9470    1.5660   15.0780 N   0  0
   -5.8610    2.1000   14.2130 C   0  0
   -6.5530    1.3770   13.5350 O   0  0
   -5.9960    3.5470   14.1120 C   0  0
   -6.8300    4.2070   13.2560 N   0  0
   -5.2850    4.4730   14.8830 C   0  0
   -6.6560    5.5390   13.4770 C   0  0
   -7.7480    3.6020   12.2780 C   0  0
   -5.7050    5.7360   14.4790 C   0  0
   -5.2360    7.0270   15.0060 N   0  0
   -4.5410    7.0720   16.1800 C   0  0
   -4.3050    6.0570   16.7910 O   0  0
   -4.0820    8.3570   16.6920 C   0  0
   -2.8790    8.5610   17.3030 N   0  0
   -4.7850    9.5250   16.6350 N   0  0
   -2.8280    9.8690   17.6290 C   0  0
   -4.0100   10.4690   17.2150 C   0  0
   -6.1210    9.7310   16.0550 C   0  0
    5.6600   -0.3460  -11.9440 H   0  0
    7.2720   -1.1900  -10.8320 H   0  0
    3.0370   -1.4840  -11.7780 H   0  0
    3.0660   -0.0720  -10.7600 H   0  0
    8.2440   -2.7520   -9.3300 H   0  0
    6.6540   -3.3500   -8.9490 H   0  0
    3.8160    1.3400  -12.7090 H   0  0
    3.8590   -0.0630  -13.7290 H   0  0
    6.2340   -1.3150   -7.5020 H   0  0
    7.8220   -0.7130   -7.8830 H   0  0
    8.1230   -3.3560   -6.8200 H   0  0
    1.2230    1.1430  -10.9340 H   0  0
    1.8380    2.5310  -11.8440 H   0  0
    7.1520   -2.0490   -2.6250 H   0  0
   -0.5330    1.0760   -9.8460 H   0  0
   -0.7440   -0.2050  -12.9630 H   0  0
   10.5060   -4.7360   -2.9570 H   0  0
   10.4650   -2.9430   -6.2790 H   0  0
    9.7930   -4.5700   -6.2030 H   0  0
   11.2780   -4.1900   -5.3360 H   0  0
   -3.5630    0.2810  -10.6600 H   0  0
   -3.9360    3.5250  -12.4180 H   0  0
   -2.7830    3.6520  -11.1290 H   0  0
   -3.5860    1.6070  -14.1530 H   0  0
   -1.8890    1.1560  -14.0160 H   0  0
   -2.3590    2.8500  -13.9220 H   0  0
   -2.8830   -0.7660  -13.3770 H   0  0
   -2.9360   -1.6210  -11.8620 H   0  0
   -0.5330   -2.1150  -11.4460 H   0  0
    0.4630   -0.7580  -10.8830 H   0  0
   -1.0680   -1.1250  -10.0920 H   0  0
    9.1430   -4.6190   -0.4770 H   0  0
   -5.0530    1.2380  -13.0710 H   0  0
   -4.1860    2.3770   -9.6490 H   0  0
   -5.8950   -1.2130  -11.5080 H   0  0
   -5.3200   -1.2010  -13.1600 H   0  0
   -5.4000    3.9610   -9.3220 H   0  0
   -7.8030   -1.1330  -13.0610 H   0  0
   -7.1410    0.2520  -13.8930 H   0  0
    5.6820   -2.8630    1.8030 H   0  0
   -7.5080    3.4360   -9.7210 H   0  0
   -8.1040    3.2850  -12.9160 H   0  0
   -6.6130    2.5310  -13.4710 H   0  0
   -6.5510    3.8610  -12.3190 H   0  0
    8.8990   -4.3560    4.2520 H   0  0
   10.6080   -3.3830    1.0330 H   0  0
   10.2580   -5.0880    1.3070 H   0  0
   10.8580   -4.0880    2.6270 H   0  0
   -9.7010   -0.4080  -12.0430 H   0  0
   -9.7010    2.8960   -9.1900 H   0  0
    5.1070   -3.3730    4.4940 H   0  0
    3.7620   -3.2520    6.0940 H   0  0
    4.7730   -4.7440   10.0080 H   0  0
    8.0610   -4.4750    8.5160 H   0  0
    7.4320   -6.0550    8.0610 H   0  0
    7.1540   -5.4320    9.6840 H   0  0
    1.7640   -3.1620    8.0530 H   0  0
    1.0940   -2.7580   12.4830 H   0  0
   -2.4900   -3.2890   10.1470 H   0  0
    0.1740   -5.0120    8.1000 H   0  0
   -0.3340   -3.3970    7.6150 H   0  0
   -1.5310   -4.5720    8.1490 H   0  0
   -1.3380   -1.8220   13.5780 H   0  0
   -4.9550   -2.3380   13.9630 H   0  0
   -3.5000   -2.3320   14.9550 H   0  0
   -4.4200   -0.0980   13.0550 H   0  0
   -3.0160   -0.0120   13.9710 H   0  0
   -4.3360   -0.1480   16.1230 H   0  0
   -5.8070   -0.3440   15.2150 H   0  0
   -4.3770    2.1640   15.6390 H   0  0
   -4.5510    4.2480   15.6470 H   0  0
   -7.1970    6.3030   12.9320 H   0  0
   -8.4690    2.9080   12.7090 H   0  0
   -7.1740    3.0620   11.5260 H   0  0
   -8.3070    4.3890   11.7700 H   0  0
   -5.4300    7.8670   14.5000 H   0  0
   -1.9880   10.3300   18.1310 H   0  0
   -4.2970   11.5060   17.3230 H   0  0
   -6.8130    8.9020   16.2190 H   0  0
   -6.0330    9.8830   14.9810 H   0  0
   -6.5700   10.6270   16.4830 H   0  0
  1  2  2  0
  2  3  1  0
  2  4  1  0
  3  5  1  0
  4  6  1  0
  5  7  1  0
  6  8  1  0
  7  9  1  0
  8 10  1  0
  9 11  1  0
 10 12  1  0
 11 13  1  0
 12 14  2  0
 12 15  1  0
 13 16  2  0
 13 17  1  0
 15 18  1  0
 15 19  2  0
 17 20  1  0
 17 21  1  0
 17 22  1  0
 18 23  1  0
 18 24  1  0
 19 25  1  0
 21 26  1  0
 21 27  1  0
 21 28  1  0
 22 29  1  0
 22 30  1  0
 25 31  1  0
 26 32  1  0
 27 33  1  0
 31 34  1  0
 32 35  1  0
 32 36  1  0
 33 37  1  0
 34 38  2  0
 34 39  1  0
 35 40  1  0
 35 41  1  0
 36 42  1  0
 39 43  1  0
 39 44  2  0
 41 45  1  0
 41 46  1  0
 41 47  1  0
 43 48  1  0
 43 49  1  0
 44 50  1  0
 45 51  2  0
 46 52  2  0
 50 53  1  0
 51 54  1  0
 53 55  1  0
 54 56  2  0
 55 57  2  0
 55 58  1  0
 58 59  1  0
 58 60  2  0
 59 61  1  0
 59 62  1  0
 60 63  1  0
 63 64  1  0
 64 65  1  0
 65 66  2  0
 65 67  1  0
 67 68  1  0
 67 69  2  0
 68 70  1  0
 68 71  1  0
 69 72  1  0
 72 73  1  0
 73 74  1  0
 74 75  2  0
 74 76  1  0
 76 77  1  0
 77 78  1  0
 78 79  1  0
 79 80  1  0
 80 81  2  0
 80 82  1  0
 82 83  1  0
 82 84  2  0
 83 85  1  0
 83 86  1  0
 84 87  1  0
 87 88  1  0
 88 89  1  0
 89 90  2  0
 89 91  1  0
 91 92  2  0
 91 93  1  0
 92 94  1  0
 93 95  1  0
 93 96  1  0
 23 25  2  0
 26 29  1  0
 33 35  1  0
 42 45  1  0
 48 50  2  0
 52 54  1  0
 61 63  2  0
 70 72  2  0
 85 87  2  0
 94 95  2  0
  3 97  1  0
  4 98  1  0
  5 99  1  0
  5100  1  0
  6101  1  0
  6102  1  0
  7103  1  0
  7104  1  0
  8105  1  0
  8106  1  0
 10107  1  0
 11108  1  0
 11109  1  0
 19110  1  0
 20111  1  0
 22112  1  0
 23113  1  0
 24114  1  0
 24115  1  0
 24116  1  0
 26117  1  0
 27118  1  0
 27119  1  0
 28120  1  0
 28121  1  0
 28122  1  0
 29123  1  0
 29124  1  0
 30125  1  0
 30126  1  0
 30127  1  0
 31128  1  0
 32129  1  0
 33130  1  0
 36131  1  0
 36132  1  0
 37133  1  0
 42134  1  0
 42135  1  0
 44136  1  0
 46137  1  0
 47138  1  0
 47139  1  0
 47140  1  0
 48141  1  0
 49142  1  0
 49143  1  0
 49144  1  0
 51145  1  0
 52146  1  0
 53147  1  0
 60148  1  0
 61149  1  0
 62150  1  0
 62151  1  0
 62152  1  0
 64153  1  0
 69154  1  0
 70155  1  0
 71156  1  0
 71157  1  0
 71158  1  0
 73159  1  0
 76160  1  0
 76161  1  0
 77162  1  0
 77163  1  0
 78164  1  0
 78165  1  0
 79166  1  0
 84167  1  0
 85168  1  0
 86169  1  0
 86170  1  0
 86171  1  0
 88172  1  0
 94173  1  0
 95174  1  0
 96175  1  0
 96176  1  0
 96177  1  0
M  END
> <Name>
CHEMBL551944

> <IC50 nM>
21

> <Molecule_ChEMBL_ID>
CHEMBL551944

> <Smiles>
C[C@H]1C[C@@H]2[C@H]3CCC4=CC(=O)C=C[C@@]4(C)[C@]3(F)[C@H](O)C[C@@]2(C)[C@]1(O)C(=O)CSCCNC(=S)NCCNC(=O)c1cc(NC(=O)c2cc(NC(=O)c3cc(NC(=O)c4cc(NC(=O)CCCNC(=O)c5cc(NC(=O)c6nccn6C)cn5C)cn4C)cn3C)cn2C)cn1C

$$$$
CHEMBL564923
  SciTegic08162514323D

207218  0  0  1  0            999 V2000
    1.0760    5.7170   11.2790 S   0  0
    0.6020    7.2810   11.6600 C   0  0
    0.4450    7.7400   12.9380 N   0  0
    0.3280    8.2440   10.7310 N   0  0
    0.7190    6.8400   14.0670 C   0  0
    0.4510    7.9200    9.3010 C   0  0
    0.0140    7.3200   15.3360 C   0  0
    0.7990    9.1660    8.4860 C   0  0
    0.2830    6.1640   16.7070 S   0  0
    0.9410    8.8400    7.0610 N   0  0
   -0.1680    7.2580   18.0840 C   0  0
    1.4980    9.7560    6.2150 C   0  0
   -1.5760    7.7540   17.8890 C   0  0
    1.8730   10.8260    6.6350 O   0  0
    1.6410    9.4380    4.7990 C   0  0
   -1.7930    8.8150   17.3520 O   0  0
   -2.7090    6.8890   18.3870 C   0  0  1  0  0  0
    1.7750   10.3480    3.7910 N   0  0
    1.6600    8.1430    4.2700 C   0  0
   -2.7010    6.9880   19.8030 O   0  0
   -4.1020    7.2830   17.8440 C   0  0  1  0  0  0
   -2.5980    5.4020   17.9300 C   0  0  2  0  0  0
    1.8790    9.6450    2.6290 C   0  0
    1.8030   11.8130    3.9240 C   0  0
    1.8130    8.2750    2.8930 C   0  0
   -4.8910    6.0140   18.2250 C   0  0  2  0  0  0
   -4.8260    8.5410   18.3790 C   0  0
   -3.9670    7.4060   16.3130 C   0  0
   -4.0290    4.9020   17.6410 C   0  0
   -1.8730    4.4690   18.9010 C   0  0
    1.8870    7.1860    1.9080 N   0  0
   -6.3520    6.2480   17.8220 C   0  0  2  0  0  0
   -5.9790    8.2560   19.3750 C   0  0  2  0  0  0
    2.0350    7.4730    0.5820 C   0  0
   -7.0100    7.1350   18.9280 C   0  0  2  0  0  0
   -7.1410    4.9690   17.5470 C   0  0
   -6.5740    9.5000   19.6740 O   0  0
    2.1090    8.6210    0.2090 O   0  0
    2.1090    6.3870   -0.3870 C   0  0
   -7.1740    6.3340   20.0410 F   0  0
   -8.4790    7.5350   18.5100 C   0  0  1  0  0  0
   -8.5330    5.3460   17.0410 C   0  0
    2.2320    6.5350   -1.7380 N   0  0
    2.0610    5.0250   -0.0660 C   0  0
   -9.2400    6.2970   17.9870 C   0  0
   -9.2600    8.2210   19.6410 C   0  0
   -8.4240    8.5370   17.3500 C   0  0
    2.2640    5.2850   -2.2770 C   0  0
    2.3160    7.8030   -2.4830 C   0  0
    2.1600    4.3280   -1.2660 C   0  0
  -10.5140    6.0160   18.3380 C   0  0
  -10.5260    7.9120   19.9770 C   0  0
    2.1540    2.8670   -1.4360 N   0  0
  -11.2500    6.8400   19.2970 C   0  0
    2.2600    2.3240   -2.6860 C   0  0
  -12.4180    6.6350   19.5260 O   0  0
    2.3570    3.0390   -3.6540 O   0  0
    2.2540    0.8750   -2.8420 C   0  0
    1.4220    0.0120   -2.1900 N   0  0
    3.1060    0.1580   -3.6900 C   0  0
    1.7380   -1.2440   -2.6150 C   0  0
    0.3810    0.3590   -1.2110 C   0  0
    2.7770   -1.1860   -3.5450 C   0  0
    3.4020   -2.3220   -4.2360 N   0  0
    4.2600   -2.1000   -5.2770 C   0  0
    4.5080   -0.9730   -5.6350 O   0  0
    4.8750   -3.2330   -5.9550 C   0  0
    5.7270   -3.1520   -7.0200 N   0  0
    4.6800   -4.5760   -5.6110 C   0  0
    6.0720   -4.4280   -7.3540 C   0  0
    6.1900   -1.9260   -7.6900 C   0  0
    5.4400   -5.3300   -6.4980 C   0  0
    5.5550   -6.7970   -6.5280 N   0  0
    4.9470   -7.5490   -5.5630 C   0  0
    4.3150   -7.0160   -4.6820 O   0  0
    5.0820   -9.0470   -5.6230 C   0  0
    4.3460   -9.6530   -6.8190 C   0  0
    2.8850   -9.9790   -6.5060 C   0  0
    2.2190  -10.5800   -7.6700 N   0  0
    1.8790   -9.7890   -8.7310 C   0  0
    2.1250   -8.6060   -8.7130 O   0  0
    1.2190  -10.3810   -9.8870 C   0  0
    0.2090  -11.2970   -9.8400 N   0  0
    1.5290  -10.0920  -11.2210 C   0  0
   -0.1250  -11.5920  -11.1270 C   0  0
   -0.4120  -11.8650   -8.6330 C   0  0
    0.6760  -10.8620  -12.0060 C   0  0
    0.6290  -10.8970  -13.4750 N   0  0
   -0.2700  -11.7070  -14.1100 C   0  0
   -1.0270  -12.3970  -13.4690 O   0  0
   -0.3090  -11.7350  -15.5670 C   0  0
   -1.1370  -12.5140  -16.3230 N   0  0
    0.5020  -10.9610  -16.4050 C   0  0
   -0.8610  -12.2440  -17.6270 C   0  0
   -2.1430  -13.4690  -15.8300 C   0  0
    0.1500  -11.2850  -17.7110 C   0  0
    0.7320  -10.7270  -18.9400 N   0  0
    0.2830  -11.1450  -20.1610 C   0  0
   -0.5940  -11.9730  -20.2370 O   0  0
    0.8670  -10.5840  -21.3730 C   0  0
    0.5270  -10.9300  -22.6490 N   0  0
    1.8650   -9.6040  -21.4030 C   0  0
    1.2990  -10.1820  -23.4850 C   0  0
   -0.4800  -11.9240  -23.0550 C   0  0
    2.1370   -9.3500  -22.7430 C   0  0
    3.1190   -8.3930  -23.2720 N   0  0
    3.2750   -8.2520  -24.6220 C   0  0
    2.6110   -8.9120  -25.3850 O   0  0
    4.2500   -7.2990  -25.1370 C   0  0
    4.0310   -6.4590  -26.1880 N   0  0
    5.5100   -7.1150  -24.6430 N   0  0
    5.1620   -5.7440  -26.3560 C   0  0
    6.0820   -6.1510  -25.3950 C   0  0
    6.1330   -7.8240  -23.5120 C   0  0
    0.1480    8.6820   13.1020 H   0  0
    0.0470    9.1560   11.0250 H   0  0
    0.3960    5.8300   13.8070 H   0  0
    1.7950    6.7770   14.2230 H   0  0
   -0.4840    7.4810    8.9510 H   0  0
    1.2110    7.1500    9.1720 H   0  0
    0.3690    8.3110   15.6210 H   0  0
   -1.0550    7.4380   15.1620 H   0  0
    1.7270    9.6130    8.8460 H   0  0
    0.0330    9.9320    8.6040 H   0  0
    0.6330    7.9550    6.7110 H   0  0
   -0.0940    6.7090   19.0240 H   0  0
    0.5210    8.1020   18.1170 H   0  0
    1.5740    7.2170    4.8240 H   0  0
   -1.8400    6.6620   20.1080 H   0  0
   -2.0590    5.3610   16.9920 H   0  0
    1.9960   10.1150    1.6620 H   0  0
    2.7620   12.2680    3.6740 H   0  0
    1.5590   12.0900    4.9490 H   0  0
    1.0470   12.2500    3.2700 H   0  0
   -4.8770    5.8500   19.2930 H   0  0
   -5.2500    9.0920   17.5370 H   0  0
   -4.0980    9.2210   18.8240 H   0  0
   -4.9340    7.3670   15.8150 H   0  0
   -3.3540    6.5960   15.9140 H   0  0
   -3.4900    8.3480   16.0430 H   0  0
   -4.1970    4.8030   16.5780 H   0  0
   -4.2500    3.9470   18.0940 H   0  0
   -1.7930    3.4650   18.4810 H   0  0
   -0.8730    4.8420   19.1210 H   0  0
   -2.4160    4.3950   19.8420 H   0  0
    1.8260    6.2340    2.2130 H   0  0
   -6.3670    6.8050   16.8830 H   0  0
   -5.5000    7.9430   20.3070 H   0  0
   -7.2090    4.3550   18.4460 H   0  0
   -6.6350    4.3650   16.7950 H   0  0
   -6.7740    9.5020   20.6230 H   0  0
   -9.1170    4.4360   16.8930 H   0  0
   -8.4550    5.8180   16.0630 H   0  0
    1.9650    4.5980    0.9240 H   0  0
   -8.8220    9.0040   20.2350 H   0  0
   -9.4200    8.8420   17.0290 H   0  0
   -7.9140    8.1040   16.4900 H   0  0
   -7.8770    9.4340   17.6430 H   0  0
    2.3570    5.1020   -3.3400 H   0  0
    3.2700    8.3220   -2.3730 H   0  0
    1.5290    8.4750   -2.1450 H   0  0
    2.1600    7.6110   -3.5430 H   0  0
  -11.0160    5.1600   17.9120 H   0  0
  -11.0160    8.4630   20.7660 H   0  0
    2.0740    2.2750   -0.6350 H   0  0
    3.8710    0.5720   -4.3340 H   0  0
    1.2320   -2.1310   -2.2580 H   0  0
   -0.2030    1.2420   -1.4730 H   0  0
    0.8400    0.5390   -0.2400 H   0  0
   -0.3110   -0.4770   -1.1060 H   0  0
    3.1990   -3.2560   -3.9420 H   0  0
    4.0590   -4.9510   -4.8090 H   0  0
    6.7420   -4.6620   -8.1700 H   0  0
    6.9120   -1.3480   -7.1130 H   0  0
    5.3360   -1.2810   -7.8970 H   0  0
    6.6520   -2.1840   -8.6410 H   0  0
    6.0760   -7.2400   -7.2560 H   0  0
    6.1310   -9.3210   -5.7460 H   0  0
    4.7320   -9.4880   -4.6900 H   0  0
    4.8670  -10.5370   -7.1860 H   0  0
    4.4160   -8.9980   -7.6860 H   0  0
    2.3440   -9.0800   -6.2090 H   0  0
    2.8140  -10.6620   -5.6600 H   0  0
    2.0140  -11.5590   -7.6880 H   0  0
    2.2870   -9.4040  -11.5730 H   0  0
   -0.9040  -12.2950  -11.3890 H   0  0
   -0.5860  -11.1410   -7.8360 H   0  0
    0.2270  -12.6530   -8.2350 H   0  0
   -1.3710  -12.3110   -8.8930 H   0  0
    1.2540  -10.3260  -14.0060 H   0  0
    1.2560  -10.2500  -16.0940 H   0  0
   -1.3730  -12.7230  -18.4520 H   0  0
   -3.0310  -13.0040  -15.4010 H   0  0
   -1.6950  -14.1040  -15.0650 H   0  0
   -2.4650  -14.1120  -16.6490 H   0  0
    1.4570  -10.0390  -18.8790 H   0  0
    2.3320   -9.1350  -20.5470 H   0  0
    1.2380  -10.2520  -24.5630 H   0  0
   -1.5120  -11.6040  -22.9070 H   0  0
   -0.3320  -12.8440  -22.4890 H   0  0
   -0.3540  -12.1580  -24.1120 H   0  0
    3.6680   -7.8440  -22.6410 H   0  0
    5.2890   -4.9900  -27.1200 H   0  0
    7.0880   -5.7810  -25.2470 H   0  0
    5.9280   -8.8950  -23.4870 H   0  0
    5.7810   -7.3930  -22.5750 H   0  0
    7.2150   -7.6950  -23.5530 H   0  0
  1  2  2  0
  2  3  1  0
  2  4  1  0
  3  5  1  0
  4  6  1  0
  5  7  1  0
  6  8  1  0
  7  9  1  0
  8 10  1  0
  9 11  1  0
 10 12  1  0
 11 13  1  0
 12 14  2  0
 12 15  1  0
 13 16  2  0
 13 17  1  0
 15 18  1  0
 15 19  2  0
 17 20  1  0
 17 21  1  0
 17 22  1  0
 18 23  1  0
 18 24  1  0
 19 25  1  0
 21 26  1  0
 21 27  1  0
 21 28  1  0
 22 29  1  0
 22 30  1  0
 25 31  1  0
 26 32  1  0
 27 33  1  0
 31 34  1  0
 32 35  1  0
 32 36  1  0
 33 37  1  0
 34 38  2  0
 34 39  1  0
 35 40  1  0
 35 41  1  0
 36 42  1  0
 39 43  1  0
 39 44  2  0
 41 45  1  0
 41 46  1  0
 41 47  1  0
 43 48  1  0
 43 49  1  0
 44 50  1  0
 45 51  2  0
 46 52  2  0
 50 53  1  0
 51 54  1  0
 53 55  1  0
 54 56  2  0
 55 57  2  0
 55 58  1  0
 58 59  1  0
 58 60  2  0
 59 61  1  0
 59 62  1  0
 60 63  1  0
 63 64  1  0
 64 65  1  0
 65 66  2  0
 65 67  1  0
 67 68  1  0
 67 69  2  0
 68 70  1  0
 68 71  1  0
 69 72  1  0
 72 73  1  0
 73 74  1  0
 74 75  2  0
 74 76  1  0
 76 77  1  0
 77 78  1  0
 78 79  1  0
 79 80  1  0
 80 81  2  0
 80 82  1  0
 82 83  1  0
 82 84  2  0
 83 85  1  0
 83 86  1  0
 84 87  1  0
 87 88  1  0
 88 89  1  0
 89 90  2  0
 89 91  1  0
 91 92  1  0
 91 93  2  0
 92 94  1  0
 92 95  1  0
 93 96  1  0
 96 97  1  0
 97 98  1  0
 98 99  2  0
 98100  1  0
100101  1  0
100102  2  0
101103  1  0
101104  1  0
102105  1  0
105106  1  0
106107  1  0
107108  2  0
107109  1  0
109110  2  0
109111  1  0
110112  1  0
111113  1  0
111114  1  0
 23 25  2  0
 26 29  1  0
 33 35  1  0
 42 45  1  0
 48 50  2  0
 52 54  1  0
 61 63  2  0
 70 72  2  0
 85 87  2  0
 94 96  2  0
103105  2  0
112113  2  0
  3115  1  0
  4116  1  0
  5117  1  0
  5118  1  0
  6119  1  0
  6120  1  0
  7121  1  0
  7122  1  0
  8123  1  0
  8124  1  0
 10125  1  0
 11126  1  0
 11127  1  0
 19128  1  0
 20129  1  0
 22130  1  0
 23131  1  0
 24132  1  0
 24133  1  0
 24134  1  0
 26135  1  0
 27136  1  0
 27137  1  0
 28138  1  0
 28139  1  0
 28140  1  0
 29141  1  0
 29142  1  0
 30143  1  0
 30144  1  0
 30145  1  0
 31146  1  0
 32147  1  0
 33148  1  0
 36149  1  0
 36150  1  0
 37151  1  0
 42152  1  0
 42153  1  0
 44154  1  0
 46155  1  0
 47156  1  0
 47157  1  0
 47158  1  0
 48159  1  0
 49160  1  0
 49161  1  0
 49162  1  0
 51163  1  0
 52164  1  0
 53165  1  0
 60166  1  0
 61167  1  0
 62168  1  0
 62169  1  0
 62170  1  0
 64171  1  0
 69172  1  0
 70173  1  0
 71174  1  0
 71175  1  0
 71176  1  0
 73177  1  0
 76178  1  0
 76179  1  0
 77180  1  0
 77181  1  0
 78182  1  0
 78183  1  0
 79184  1  0
 84185  1  0
 85186  1  0
 86187  1  0
 86188  1  0
 86189  1  0
 88190  1  0
 93191  1  0
 94192  1  0
 95193  1  0
 95194  1  0
 95195  1  0
 97196  1  0
102197  1  0
103198  1  0
104199  1  0
104200  1  0
104201  1  0
106202  1  0
112203  1  0
113204  1  0
114205  1  0
114206  1  0
114207  1  0
M  END
> <Name>
CHEMBL564923

> <IC50 nM>
27

> <Molecule_ChEMBL_ID>
CHEMBL564923

> <Smiles>
C[C@H]1C[C@@H]2[C@H]3CCC4=CC(=O)C=C[C@@]4(C)[C@]3(F)[C@H](O)C[C@@]2(C)[C@]1(O)C(=O)CSCCNC(=S)NCCNC(=O)c1cc(NC(=O)c2cc(NC(=O)c3cc(NC(=O)c4cc(NC(=O)CCCNC(=O)c5cc(NC(=O)c6cc(NC(=O)c7cc(NC(=O)c8nccn8C)cn7
C)cn6C)cn5C)cn4C)cn3C)cn2C)cn1C

$$$$
CHEMBL440877
  SciTegic08162514323D

 69 73  0  0  1  0            999 V2000
   -5.8260    8.6860   -0.8090 F   0  0
   -5.3590    7.4410   -0.7300 C   0  0
   -6.0370    6.4820    0.0430 C   0  0
   -4.1880    7.0860   -1.4200 C   0  0
   -5.5450    5.1700    0.1270 C   0  0
   -3.6930    5.7720   -1.3380 C   0  0
   -4.3710    4.8110   -0.5640 C   0  0
   -3.8930    3.5410   -0.4840 N   0  0
   -4.6560    2.4200   -0.5920 N   0  0
   -2.5940    3.1910   -0.2890 C   0  0
   -3.9380    1.2700   -0.4670 C   0  0
   -2.6680    1.8090   -0.2700 C   0  0
   -1.3530    3.9690   -0.1230 C   0  0
   -1.3870    1.0250   -0.0180 C   0  0
   -0.1740    3.3090   -0.1430 C   0  0
   -0.1030    1.8050   -0.4570 C   0  0  1  0  0  0
    1.1210    4.0490    0.1310 C   0  0
    1.1500    1.2070    0.2340 C   0  0  1  0  0  0
    0.0390    1.6740   -1.9820 C   0  0
    2.3070    3.3770   -0.5680 C   0  0
    1.2580   -0.3140    0.0510 C   0  0  1  0  0  0
    2.4690    1.8960   -0.1820 C   0  0
    1.5290   -0.5760   -1.3090 O   0  0
    2.3770   -0.9320    0.8890 C   0  0
    2.3130   -2.4180    0.8790 C   0  0
    3.2050   -3.1540    0.0800 C   0  0
    1.3570   -3.0880    1.6660 C   0  0
    3.1430   -4.5590    0.0700 C   0  0
    1.2970   -4.4900    1.6540 C   0  0
    2.1900   -5.2290    0.8570 C   0  0
    2.1250   -6.7150    0.8460 C   0  0
    1.5490   -7.2620    2.1500 C   0  0
    3.4790   -7.3340    0.4920 C   0  0
    1.1270   -6.7760   -0.3120 C   0  0
   -6.9380    6.7520    0.5760 H   0  0
   -3.6640    7.8180   -2.0180 H   0  0
   -6.0780    4.4450    0.7290 H   0  0
   -2.7910    5.5180   -1.8770 H   0  0
   -4.2970    0.2500   -0.5140 H   0  0
   -1.3890    5.0410    0.0120 H   0  0
   -1.4410    0.0550   -0.5140 H   0  0
   -1.3460    0.8180    1.0530 H   0  0
    1.0390    5.0820   -0.2050 H   0  0
    1.2910    4.0800    1.2070 H   0  0
    1.0270    1.3790    1.3050 H   0  0
    1.0650    1.8380   -2.3110 H   0  0
   -0.5960    2.4000   -2.4920 H   0  0
   -0.2620    0.6800   -2.3140 H   0  0
    3.2290    3.9200   -0.3590 H   0  0
    2.1580    3.4470   -1.6460 H   0  0
    0.3160   -0.8010    0.3090 H   0  0
    3.1820    1.8110    0.6410 H   0  0
    2.9220    1.3710   -1.0230 H   0  0
    1.3260   -1.5100   -1.4650 H   0  0
    3.3520   -0.6070    0.5290 H   0  0
    2.3280   -0.5740    1.9180 H   0  0
    3.9400   -2.6470   -0.5270 H   0  0
    0.6700   -2.5270    2.2810 H   0  0
    3.8320   -5.1190   -0.5450 H   0  0
    0.5630   -5.0000    2.2620 H   0  0
    0.4840   -7.0490    2.2460 H   0  0
    2.0550   -6.8220    3.0100 H   0  0
    1.6780   -8.3440    2.2050 H   0  0
    3.7460   -7.1560   -0.5510 H   0  0
    3.4630   -8.4120    0.6520 H   0  0
    4.2680   -6.9140    1.1150 H   0  0
    1.5410   -6.3030   -1.2030 H   0  0
    0.8690   -7.8090   -0.5450 H   0  0
    0.2070   -6.2520   -0.0550 H   0  0
  1  2  1  0
  2  3  2  0
  2  4  1  0
  3  5  1  0
  4  6  2  0
  5  7  2  0
  7  8  1  0
  8  9  1  0
  8 10  1  0
  9 11  2  0
 10 12  2  0
 10 13  1  0
 12 14  1  0
 13 15  2  0
 14 16  1  0
 15 17  1  0
 16 18  1  0
 16 19  1  0
 17 20  1  0
 18 21  1  0
 18 22  1  0
 21 23  1  0
 21 24  1  0
 24 25  1  0
 25 26  2  0
 25 27  1  0
 26 28  1  0
 27 29  2  0
 28 30  2  0
 30 31  1  0
 31 32  1  0
 31 33  1  0
 31 34  1  0
  6  7  1  0
 11 12  1  0
 15 16  1  0
 20 22  1  0
 29 30  1  0
  3 35  1  0
  4 36  1  0
  5 37  1  0
  6 38  1  0
 11 39  1  0
 13 40  1  0
 14 41  1  0
 14 42  1  0
 17 43  1  0
 17 44  1  0
 18 45  1  0
 19 46  1  0
 19 47  1  0
 19 48  1  0
 20 49  1  0
 20 50  1  0
 21 51  1  0
 22 52  1  0
 22 53  1  0
 23 54  1  0
 24 55  1  0
 24 56  1  0
 26 57  1  0
 27 58  1  0
 28 59  1  0
 29 60  1  0
 32 61  1  0
 32 62  1  0
 32 63  1  0
 33 64  1  0
 33 65  1  0
 33 66  1  0
 34 67  1  0
 34 68  1  0
 34 69  1  0
M  END
> <Name>
CHEMBL440877

> <IC50 nM>
16.6

> <Molecule_ChEMBL_ID>
CHEMBL440877

> <Smiles>
CC(C)(C)c1ccc(C[C@H](O)[C@H]2CCCC3=Cc4c(cnn4-c4ccc(F)cc4)C[C@@]32C)cc1

$$$$
CHEMBL3261401
  SciTegic08162514323D

 43 45  0  0  1  0            999 V2000
   -0.5820   -2.9040    0.1270 S   0  0
   -1.8010   -3.6900    0.2050 O   0  0
    0.1620   -3.1230   -1.1000 O   0  0
   -1.0880   -1.2380    0.0880 N   0  0
    0.4320   -3.3320    1.4670 C   0  0
   -1.8300   -0.7770   -1.0720 C   0  0  2  0  0  0
    0.9000   -4.6490    1.6330 C   0  0
    0.7870   -2.3460    2.3970 C   0  0
   -1.9100    0.7480   -1.0860 C   0  0
   -3.2070   -1.4420   -1.1250 C   0  0
    0.5290   -5.6530    0.6740 C   0  0
    1.7230   -4.9790    2.7290 C   0  0
    1.6090   -2.6700    3.4920 C   0  0
   -0.5980    1.2910   -1.1000 O   0  0
    0.2310   -6.4650   -0.1020 N   0  0
    2.0760   -3.9830    3.6580 C   0  0
   -0.4670    2.6250   -1.1130 C   0  0
    0.8150    3.2400   -1.1290 C   0  0
   -1.6290    3.4300   -1.1150 C   0  0
    0.9300    4.6700   -1.1430 C   0  0
    2.0000    2.4530   -1.1290 C   0  0
   -1.5210    4.8400   -1.1290 C   0  0
    2.1720    5.2750   -1.1540 N   0  0
   -0.2500    5.4570   -1.1430 C   0  0
    3.2620    3.0960   -1.1430 C   0  0
    3.3200    4.5100   -1.1540 C   0  0
   -1.6450   -1.0290    0.9300 H   0  0
   -1.1990   -1.1390   -1.8850 H   0  0
    0.4320   -1.3320    2.2750 H   0  0
   -2.4200    1.1150   -0.1970 H   0  0
   -2.4340    1.0990   -1.9770 H   0  0
   -3.1130   -2.5100   -1.3110 H   0  0
   -3.7440   -1.2890   -0.1890 H   0  0
   -3.8110   -1.0140   -1.9280 H   0  0
    2.0840   -5.9830    2.8610 H   0  0
    1.8790   -1.9060    4.2030 H   0  0
    2.7070   -4.2330    4.4960 H   0  0
   -2.6050    2.9690   -1.1040 H   0  0
    1.9570    1.3730   -1.1190 H   0  0
   -2.4140    5.4470   -1.1290 H   0  0
   -0.1930    6.5370   -1.1520 H   0  0
    4.1700    2.5120   -1.1430 H   0  0
    4.2830    5.0000   -1.1660 H   0  0
  1  2  2  0
  1  3  2  0
  1  4  1  0
  1  5  1  0
  4  6  1  0
  5  7  2  0
  5  8  1  0
  6  9  1  0
  6 10  1  0
  7 11  1  0
  7 12  1  0
  8 13  2  0
  9 14  1  0
 11 15  3  0
 12 16  2  0
 14 17  1  0
 17 18  2  0
 17 19  1  0
 18 20  1  0
 18 21  1  0
 19 22  2  0
 20 23  1  0
 20 24  2  0
 21 25  2  0
 23 26  2  0
 13 16  1  0
 22 24  1  0
 25 26  1  0
  4 27  1  0
  6 28  1  0
  8 29  1  0
  9 30  1  0
  9 31  1  0
 10 32  1  0
 10 33  1  0
 10 34  1  0
 12 35  1  0
 13 36  1  0
 16 37  1  0
 19 38  1  0
 21 39  1  0
 22 40  1  0
 24 41  1  0
 25 42  1  0
 26 43  1  0
M  END
> <Name>
CHEMBL3261401

> <IC50 nM>
10000

> <Molecule_ChEMBL_ID>
CHEMBL3261401

> <Smiles>
C[C@@H](COc1cccc2ncccc12)NS(=O)(=O)c1ccccc1C#N

$$$$
CHEMBL3261402
  SciTegic08162514323D

 42 44  0  0  1  0            999 V2000
   -0.6110   -3.0630    0.1480 S   0  0
   -1.8570   -3.8070    0.2170 O   0  0
    0.1480   -3.3300   -1.0610 O   0  0
   -1.0590   -1.3830    0.0700 N   0  0
    0.3570   -3.5000    1.5080 C   0  0
   -1.7770   -0.9220   -1.1030 C   0  0  2  0  0  0
    0.7680   -4.8340    1.6760 C   0  0
    0.7360   -2.5220    2.4430 C   0  0
   -1.8550    0.6050   -1.1190 C   0  0
   -3.1520   -1.5840   -1.1860 C   0  0
    1.5570   -5.1920    2.7830 C   0  0
    1.5250   -2.8790    3.5510 C   0  0
   -0.5430    1.1460   -1.1330 O   0  0
    1.9360   -4.2130    3.7210 C   0  0
   -0.4120    2.4820   -1.1460 C   0  0
    0.8690    3.0960   -1.1600 C   0  0
   -1.5760    3.2870   -1.1460 C   0  0
    0.9820    4.5270   -1.1740 C   0  0
    2.0530    2.3090   -1.1600 C   0  0
   -1.4690    4.6950   -1.1600 C   0  0
    2.2270    5.1310   -1.1870 N   0  0
   -0.1950    5.3130   -1.1740 C   0  0
    3.3160    2.9510   -1.1740 C   0  0
    3.3750    4.3650   -1.1870 C   0  0
   -1.6110   -1.1370    0.9040 H   0  0
   -1.1290   -1.2810   -1.9020 H   0  0
    0.4770   -5.5860    0.9570 H   0  0
    0.4220   -1.4980    2.3150 H   0  0
   -2.3670    0.9730   -0.2300 H   0  0
   -2.3790    0.9550   -2.0100 H   0  0
   -3.0570   -2.6430   -1.4280 H   0  0
   -3.6860   -1.4820   -0.2400 H   0  0
   -3.7600   -1.1190   -1.9610 H   0  0
    1.8710   -6.2150    2.9140 H   0  0
    1.8160   -2.1290    4.2700 H   0  0
    2.5410   -4.4880    4.5720 H   0  0
   -2.5530    2.8240   -1.1370 H   0  0
    2.0120    1.2280   -1.1520 H   0  0
   -2.3610    5.3030   -1.1620 H   0  0
   -0.1390    6.3930   -1.1840 H   0  0
    4.2250    2.3670   -1.1760 H   0  0
    4.3360    4.8550   -1.1970 H   0  0
  1  2  2  0
  1  3  2  0
  1  4  1  0
  1  5  1  0
  4  6  1  0
  5  7  2  0
  5  8  1  0
  6  9  1  0
  6 10  1  0
  7 11  1  0
  8 12  2  0
  9 13  1  0
 11 14  2  0
 13 15  1  0
 15 16  2  0
 15 17  1  0
 16 18  1  0
 16 19  1  0
 17 20  2  0
 18 21  1  0
 18 22  2  0
 19 23  2  0
 21 24  2  0
 12 14  1  0
 20 22  1  0
 23 24  1  0
  4 25  1  0
  6 26  1  0
  7 27  1  0
  8 28  1  0
  9 29  1  0
  9 30  1  0
 10 31  1  0
 10 32  1  0
 10 33  1  0
 11 34  1  0
 12 35  1  0
 14 36  1  0
 17 37  1  0
 19 38  1  0
 20 39  1  0
 22 40  1  0
 23 41  1  0
 24 42  1  0
M  END
> <Name>
CHEMBL3261402

> <IC50 nM>
10000

> <Molecule_ChEMBL_ID>
CHEMBL3261402

> <Smiles>
C[C@@H](COc1cccc2ncccc12)NS(=O)(=O)c1ccccc1

$$$$
CHEMBL293452
  SciTegic08162514323D

 52 55  0  0  1  0            999 V2000
   -4.3590   -2.2010    0.9800 S   0  0
   -4.1580   -3.0350   -0.1890 O   0  0
   -3.9920   -2.8590    2.2230 O   0  0
   -3.4080   -0.8980    0.8200 N   0  0
   -6.0820   -1.7300    1.0640 C   0  0
   -2.0780   -1.0430    0.7640 C   0  0
   -1.2360    0.0880    0.6460 C   0  0
   -1.4960   -2.3300    0.8200 C   0  0
    0.1800   -0.0510    0.5840 C   0  0
   -0.0940   -2.4840    0.7710 C   0  0
    0.7660   -1.3520    0.6840 C   0  0
    1.0660    1.1470    0.4410 C   0  0  1  0  0  0
    2.2480   -1.4650    0.6860 C   0  0
    2.3750    0.8300   -0.0570 O   0  0
    0.5040    2.1930   -0.4610 C   0  0
    2.9920   -0.3240    0.2640 C   0  0
    2.9670   -2.6410    1.0760 C   0  0
    0.4390    1.9670   -1.8480 C   0  0
    0.0350    3.4060    0.0760 C   0  0
    4.4000   -0.3770    0.1640 C   0  0
    2.3630   -3.7360    1.5590 O   0  0
    4.3790   -2.6780    0.9800 C   0  0
   -0.0920    2.9530   -2.6970 C   0  0
   -0.4960    4.3930   -0.7750 C   0  0
    5.0940   -1.5530    0.5180 C   0  0
    3.0630   -4.9690    1.4880 C   0  0
   -0.5590    4.1660   -2.1600 C   0  0
   -0.1580    2.7130   -4.1620 C   0  0
   -0.9900    5.6760   -0.2090 C   0  0
   -3.8160    0.0140    0.7640 H   0  0
   -6.7720   -2.5660    1.1740 H   0  0
   -6.3560   -1.1890    0.1580 H   0  0
   -6.2340   -1.0600    1.9120 H   0  0
   -1.6800    1.0720    0.6040 H   0  0
   -2.1150   -3.2130    0.8980 H   0  0
    0.2730   -3.4980    0.8010 H   0  0
    1.1930    1.5840    1.4340 H   0  0
    0.7990    1.0350   -2.2580 H   0  0
    0.0840    3.5820    1.1410 H   0  0
    4.9510    0.4840   -0.1840 H   0  0
    4.9160   -3.5700    1.2640 H   0  0
    6.1700   -1.5920    0.4380 H   0  0
    2.3690   -5.7700    1.7440 H   0  0
    3.5370   -5.0370    0.5100 H   0  0
    3.8520   -4.9570    2.2400 H   0  0
   -0.9670    4.9240   -2.8140 H   0  0
   -0.5860    3.5370   -4.7320 H   0  0
   -0.7600    1.8260   -4.3570 H   0  0
    0.8440    2.5270   -4.5470 H   0  0
   -0.8960    5.7520    0.8750 H   0  0
   -2.0430    5.8030   -0.4630 H   0  0
   -0.4370    6.5040   -0.6500 H   0  0
  1  2  2  0
  1  3  2  0
  1  4  1  0
  1  5  1  0
  4  6  1  0
  6  7  2  0
  6  8  1  0
  7  9  1  0
  8 10  2  0
  9 11  2  0
  9 12  1  0
 11 13  1  0
 12 14  1  0
 12 15  1  0
 13 16  2  0
 13 17  1  0
 15 18  2  0
 15 19  1  0
 16 20  1  0
 17 21  1  0
 17 22  2  0
 18 23  1  0
 19 24  2  0
 20 25  2  0
 21 26  1  0
 23 27  2  0
 23 28  1  0
 24 29  1  0
 10 11  1  0
 14 16  1  0
 22 25  1  0
 24 27  1  0
  4 30  1  0
  5 31  1  0
  5 32  1  0
  5 33  1  0
  7 34  1  0
  8 35  1  0
 10 36  1  0
 12 37  1  0
 18 38  1  0
 19 39  1  0
 20 40  1  0
 22 41  1  0
 25 42  1  0
 26 43  1  0
 26 44  1  0
 26 45  1  0
 27 46  1  0
 28 47  1  0
 28 48  1  0
 28 49  1  0
 29 50  1  0
 29 51  1  0
 29 52  1  0
M  END
> <Name>
CHEMBL293452

> <IC50 nM>
2

> <Molecule_ChEMBL_ID>
CHEMBL293452

> <Smiles>
COc1cccc2c1-c1ccc(NS(C)(=O)=O)cc1C(c1cc(C)cc(C)c1)O2

$$$$
CHEMBL5282323
  SciTegic08162514323D

 55 58  0  0  0  0            999 V2000
    4.9570   -5.4200    3.3930 Cl  0  0
    4.5720   -4.7030    1.8790 C   0  0
    5.4470   -4.8050    0.7740 C   0  0
    3.3590   -4.0020    1.7420 C   0  0
    5.1000   -4.2090   -0.4510 C   0  0
    6.7420   -5.5350    0.8770 C   0  0
    3.0220   -3.4080    0.5160 C   0  0
    3.8890   -3.5100   -0.5860 C   0  0
    1.5310   -2.5490    0.3630 S   0  0
    3.5700   -2.9530   -1.7380 O   0  0
    0.7500   -2.7760    1.5680 O   0  0
    0.8630   -3.0020   -0.8440 O   0  0
    1.7620   -0.9530    0.2250 N   0  0
    4.4820   -3.0920   -2.8180 C   0  0
    0.7090   -0.1330    0.0940 C   0  0
   -0.6070   -0.6500    0.0820 C   0  0
    0.8980    1.2640   -0.0310 C   0  0
   -1.7290    0.2070   -0.0570 C   0  0
   -0.2090    2.1290   -0.1680 C   0  0
   -1.5430    1.6230   -0.1820 C   0  0
   -3.0880   -0.3950   -0.0620 C   0  0
   -2.6210    2.4610   -0.3140 N   0  0
   -4.1040    0.4940   -0.7910 C   0  0
   -2.4750    3.8200   -0.4710 C   0  0
   -4.0180    1.9390   -0.2850 C   0  0
   -1.4710    4.2750   -0.9690 O   0  0
   -3.5740    4.7150   -0.0060 C   0  0
   -4.1660    4.5100    1.2540 C   0  0
   -4.0230    5.7660   -0.8280 C   0  0
   -5.2030    5.3540    1.6920 C   0  0
   -5.0590    6.6070   -0.3910 C   0  0
   -5.6490    6.4020    0.8690 C   0  0
   -6.6310    7.2010    1.2830 F   0  0
    2.6800   -3.9140    2.5780 H   0  0
    5.7660   -4.2850   -1.2990 H   0  0
    7.3280   -5.5410   -0.0430 H   0  0
    6.5550   -6.5700    1.1580 H   0  0
    7.3540   -5.0840    1.6580 H   0  0
    2.6880   -0.5780    0.2340 H   0  0
    5.4100   -2.5880   -2.5510 H   0  0
    4.5630   -4.1510   -3.0620 H   0  0
    4.0630   -2.5800   -3.6860 H   0  0
   -0.7710   -1.7150    0.1780 H   0  0
    1.8950    1.6870   -0.0270 H   0  0
   -0.0040    3.1860   -0.2600 H   0  0
   -3.0720   -1.3810   -0.5310 H   0  0
   -3.4020   -0.5410    0.9710 H   0  0
   -3.9120    0.4670   -1.8650 H   0  0
   -5.1110    0.1050   -0.6480 H   0  0
   -4.6660    2.5720   -0.8940 H   0  0
   -4.3890    1.9980    0.7380 H   0  0
   -3.8300    3.7050    1.8930 H   0  0
   -3.5740    5.9320   -1.7970 H   0  0
   -5.6520    5.1910    2.6600 H   0  0
   -5.4000    7.4140   -1.0250 H   0  0
  1  2  1  0
  2  3  2  0
  2  4  1  0
  3  5  1  0
  3  6  1  0
  4  7  2  0
  5  8  2  0
  7  9  1  0
  8 10  1  0
  9 11  2  0
  9 12  2  0
  9 13  1  0
 10 14  1  0
 13 15  1  0
 15 16  2  0
 15 17  1  0
 16 18  1  0
 17 19  2  0
 18 20  2  0
 18 21  1  0
 20 22  1  0
 21 23  1  0
 22 24  1  0
 22 25  1  0
 24 26  2  0
 24 27  1  0
 27 28  2  0
 27 29  1  0
 28 30  1  0
 29 31  2  0
 30 32  2  0
 32 33  1  0
  7  8  1  0
 19 20  1  0
 23 25  1  0
 31 32  1  0
  4 34  1  0
  5 35  1  0
  6 36  1  0
  6 37  1  0
  6 38  1  0
 13 39  1  0
 14 40  1  0
 14 41  1  0
 14 42  1  0
 16 43  1  0
 17 44  1  0
 19 45  1  0
 21 46  1  0
 21 47  1  0
 23 48  1  0
 23 49  1  0
 25 50  1  0
 25 51  1  0
 28 52  1  0
 29 53  1  0
 30 54  1  0
 31 55  1  0
M  END
> <Name>
CHEMBL5282323

> <IC50 nM>
14220

> <Molecule_ChEMBL_ID>
CHEMBL5282323

> <Smiles>
COc1cc(C)c(Cl)cc1S(=O)(=O)Nc1ccc2c(c1)CCCN2C(=O)c1ccc(F)cc1

$$$$
CHEMBL5273260
  SciTegic08162514323D

 49 52  0  0  0  0            999 V2000
    2.5920   -2.6450   -0.8280 S   0  0
    1.9570   -3.1880   -2.0160 O   0  0
    3.9550   -3.1090   -0.6430 O   0  0
    2.6450   -1.0330   -0.9960 N   0  0
    1.6640   -3.1190    0.5490 C   0  0
    1.5080   -0.3360   -1.1350 C   0  0
    1.8160   -2.4380    1.7720 C   0  0
    0.7600   -4.1900    0.4410 C   0  0
    0.2600   -1.0000   -1.1840 C   0  0
    1.5430    1.0740   -1.2320 C   0  0
    2.6640   -1.4360    1.8750 O   0  0
    1.0570   -2.8340    2.8870 C   0  0
    0.0020   -4.5820    1.5590 C   0  0
   -0.9490   -0.2710   -1.3280 C   0  0
    0.3460    1.8110   -1.3770 C   0  0
    2.7130   -0.7270    3.1060 C   0  0
    0.1500   -3.9040    2.7810 C   0  0
   -0.9220    1.1580   -1.4280 C   0  0
   -2.2310   -1.0210   -1.3790 C   0  0
   -2.0860    1.8710   -1.5640 N   0  0
   -3.4120   -0.1620   -0.9200 C   0  0
   -2.0960    3.2440   -1.6430 C   0  0
   -3.4100    1.1890   -1.6470 C   0  0
   -2.7910    3.8050   -2.4570 O   0  0
   -1.2620    4.0200   -0.7340 C   0  0
   -0.9120    3.4510    0.4530 O   0  0
   -0.7480    5.3070   -0.9060 C   0  0
   -0.1500    4.4140    1.0510 C   0  0
   -0.0250    5.5630    0.2580 C   0  0
    3.5250   -0.5610   -0.9980 H   0  0
    0.6460   -4.7110   -0.4960 H   0  0
    0.2190   -2.0780   -1.1110 H   0  0
    2.4820    1.6070   -1.1990 H   0  0
    1.1680   -2.3160    3.8260 H   0  0
   -0.6930   -5.4040    1.4770 H   0  0
    0.4320    2.8850   -1.4470 H   0  0
    3.4840    0.0390    3.0270 H   0  0
    1.7070   -0.3770    3.3360 H   0  0
    3.0120   -1.4240    3.8890 H   0  0
   -0.4320   -4.2050    3.6390 H   0  0
   -2.3950   -1.3540   -2.4060 H   0  0
   -2.1780   -1.9200   -0.7620 H   0  0
   -3.3520    0.0020    0.1580 H   0  0
   -4.3520   -0.6860   -1.1000 H   0  0
   -3.6620    1.0450   -2.6970 H   0  0
   -4.1900    1.8260   -1.2230 H   0  0
   -0.8810    5.9650   -1.7560 H   0  0
    0.2970    4.2910    2.0290 H   0  0
    0.5230    6.4630    0.5000 H   0  0
  1  2  2  0
  1  3  2  0
  1  4  1  0
  1  5  1  0
  4  6  1  0
  5  7  2  0
  5  8  1  0
  6  9  2  0
  6 10  1  0
  7 11  1  0
  7 12  1  0
  8 13  2  0
  9 14  1  0
 10 15  2  0
 11 16  1  0
 12 17  2  0
 14 18  2  0
 14 19  1  0
 18 20  1  0
 19 21  1  0
 20 22  1  0
 20 23  1  0
 22 24  2  0
 22 25  1  0
 25 26  1  0
 25 27  2  0
 26 28  1  0
 27 29  1  0
 13 17  1  0
 15 18  1  0
 21 23  1  0
 28 29  2  0
  4 30  1  0
  8 31  1  0
  9 32  1  0
 10 33  1  0
 12 34  1  0
 13 35  1  0
 15 36  1  0
 16 37  1  0
 16 38  1  0
 16 39  1  0
 17 40  1  0
 19 41  1  0
 19 42  1  0
 21 43  1  0
 21 44  1  0
 23 45  1  0
 23 46  1  0
 27 47  1  0
 28 48  1  0
 29 49  1  0
M  END
> <Name>
CHEMBL5273260

> <IC50 nM>
900

> <Molecule_ChEMBL_ID>
CHEMBL5273260

> <Smiles>
COc1ccccc1S(=O)(=O)Nc1ccc2c(c1)CCCN2C(=O)c1ccco1

$$$$
CHEMBL5286252
  SciTegic08162514323D

 78 84  0  0  0  0            999 V2000
   -0.9060   -1.0780    0.4120 S   0  0
   -2.0390   -1.2620    1.3010 O   0  0
   -0.7790   -2.1330   -0.5780 O   0  0
   -1.1310    0.3140   -0.3830 N   0  0
    0.5330   -1.0550    1.3650 C   0  0
    0.2380    0.8540   -1.0630 S   0  0
   -2.2680    1.0120   -0.5220 C   0  0
    1.4770   -2.0860    1.2360 C   0  0
    0.7560   -0.0020    2.2710 C   0  0
   -0.1330    1.6880   -2.1910 O   0  0
    0.9800    1.5700   -0.0390 O   0  0
    1.2250   -0.4380   -1.6450 C   0  0
   -3.5160    0.3480   -0.5700 C   0  0
   -2.2320    2.4220   -0.6190 C   0  0
    2.6480   -2.0660    2.0120 C   0  0
    1.9260    0.0180    3.0470 C   0  0
    0.7380   -1.2950   -2.6470 C   0  0
    2.5100   -0.6310   -1.1130 C   0  0
   -4.7250    1.0760   -0.7150 C   0  0
   -3.4300    3.1580   -0.7640 C   0  0
    2.8750   -1.0140    2.9200 C   0  0
    1.5410   -2.3460   -3.1190 C   0  0
    3.3150   -1.6840   -1.5860 C   0  0
   -4.6970    2.5060   -0.8140 C   0  0
   -6.0060    0.3260   -0.7680 C   0  0
    4.0900   -0.9940    3.7250 C   0  0
    2.8300   -2.5430   -2.5920 C   0  0
   -5.8610    3.2210   -0.9510 N   0  0
   -7.1880    1.1870   -0.3070 C   0  0
    4.0330   -0.6090    5.0780 C   0  0
    5.3220   -1.3570    3.1520 C   0  0
    3.6620   -3.6330   -3.0820 C   0  0
   -5.8710    4.5920   -1.0290 C   0  0
   -7.1860    2.5370   -1.0330 C   0  0
    5.2050   -0.5900    5.8540 C   0  0
    6.4940   -1.3380    3.9300 C   0  0
    4.4340   -4.3930   -2.1820 C   0  0
    3.6990   -3.9300   -4.4570 C   0  0
   -6.5570    5.1520   -1.8520 O   0  0
   -5.0470    5.3590   -0.1070 C   0  0
    6.4360   -0.9530    5.2790 C   0  0
    5.2360   -5.4450   -2.6560 C   0  0
    4.5020   -4.9830   -4.9300 C   0  0
   -4.6580    6.6090   -0.4880 O   0  0
   -4.5760    4.9940    1.1560 C   0  0
    5.2720   -5.7380   -4.0290 C   0  0
   -3.9160    7.0470    0.5720 C   0  0
   -3.8400    6.0940    1.5960 C   0  0
    1.3050   -2.8950    0.5390 H   0  0
    0.0270    0.7890    2.3690 H   0  0
   -3.5570   -0.7310   -0.4980 H   0  0
   -1.2930    2.9550   -0.5860 H   0  0
    3.3670   -2.8670    1.9000 H   0  0
    2.0840    0.8340    3.7400 H   0  0
   -0.2520   -1.1450   -3.0530 H   0  0
    2.8830    0.0270   -0.3420 H   0  0
   -3.3440    4.2340   -0.8340 H   0  0
    1.1540   -2.9960   -3.8910 H   0  0
    4.3010   -1.8180   -1.1680 H   0  0
   -6.1700   -0.0060   -1.7930 H   0  0
   -5.9530   -0.5720   -0.1480 H   0  0
   -7.1270    1.3500    0.7710 H   0  0
   -8.1270    0.6640   -0.4860 H   0  0
    3.0960   -0.3260    5.5350 H   0  0
    5.3850   -1.6560    2.1150 H   0  0
   -7.4380    2.3930   -2.0840 H   0  0
   -7.9650    3.1740   -0.6090 H   0  0
    5.1600   -0.2950    6.8930 H   0  0
    7.4400   -1.6170    3.4880 H   0  0
    4.4180   -4.1800   -1.1210 H   0  0
    3.1130   -3.3570   -5.1640 H   0  0
    7.3340   -0.9390    5.8770 H   0  0
    5.8280   -6.0270   -1.9650 H   0  0
    4.5290   -5.2090   -5.9860 H   0  0
   -4.7420    4.0630    1.6800 H   0  0
    5.8890   -6.5470   -4.3950 H   0  0
   -3.4470    8.0220    0.6030 H   0  0
   -3.3150    6.1910    2.5370 H   0  0
  1  2  2  0
  1  3  2  0
  1  4  1  0
  1  5  1  0
  4  6  1  0
  4  7  1  0
  5  8  2  0
  5  9  1  0
  6 10  2  0
  6 11  2  0
  6 12  1  0
  7 13  2  0
  7 14  1  0
  8 15  1  0
  9 16  2  0
 12 17  2  0
 12 18  1  0
 13 19  1  0
 14 20  2  0
 15 21  2  0
 17 22  1  0
 18 23  2  0
 19 24  2  0
 19 25  1  0
 21 26  1  0
 22 27  2  0
 24 28  1  0
 25 29  1  0
 26 30  2  0
 26 31  1  0
 27 32  1  0
 28 33  1  0
 28 34  1  0
 30 35  1  0
 31 36  2  0
 32 37  2  0
 32 38  1  0
 33 39  2  0
 33 40  1  0
 35 41  2  0
 37 42  1  0
 38 43  2  0
 40 44  1  0
 40 45  2  0
 42 46  2  0
 44 47  1  0
 45 48  1  0
 16 21  1  0
 20 24  1  0
 23 27  1  0
 29 34  1  0
 36 41  1  0
 43 46  1  0
 47 48  2  0
  8 49  1  0
  9 50  1  0
 13 51  1  0
 14 52  1  0
 15 53  1  0
 16 54  1  0
 17 55  1  0
 18 56  1  0
 20 57  1  0
 22 58  1  0
 23 59  1  0
 25 60  1  0
 25 61  1  0
 29 62  1  0
 29 63  1  0
 30 64  1  0
 31 65  1  0
 34 66  1  0
 34 67  1  0
 35 68  1  0
 36 69  1  0
 37 70  1  0
 38 71  1  0
 41 72  1  0
 42 73  1  0
 43 74  1  0
 45 75  1  0
 46 76  1  0
 47 77  1  0
 48 78  1  0
M  END
> <Name>
CHEMBL5286252

> <IC50 nM>
70

> <Molecule_ChEMBL_ID>
CHEMBL5286252

> <Smiles>
O=C(c1ccco1)N1CCCc2cc(N(S(=O)(=O)c3ccc(-c4ccccc4)cc3)S(=O)(=O)c3ccc(-c4ccccc4)cc3)ccc21

$$$$
CHEMBL5274089
  SciTegic08162514323D

 54 57  0  0  0  0            999 V2000
    6.7010   -2.9590    3.1990 Cl  0  0
    5.7500   -2.9380    1.7660 C   0  0
    5.9340   -3.9010    0.7480 C   0  0
    4.7730   -1.9380    1.6090 C   0  0
    5.1350   -3.8560   -0.4080 C   0  0
    6.9570   -4.9750    0.8730 C   0  0
    3.9820   -1.8970    0.4490 C   0  0
    4.1600   -2.8560   -0.5640 C   0  0
    2.7890   -0.6620    0.2690 S   0  0
    3.4180   -2.8210   -1.6520 O   0  0
    3.0020   -0.0020   -1.0060 O   0  0
    2.8890    0.2380    1.4040 O   0  0
    1.2850   -1.2680    0.2620 N   0  0
    3.7170   -3.7370   -2.6930 C   0  0
    0.2320   -0.4470    0.1310 C   0  0
   -1.0820   -0.9670    0.1190 C   0  0
    0.4240    0.9470    0.0060 C   0  0
   -2.2030   -0.1080   -0.0200 C   0  0
   -0.6840    1.8120   -0.1310 C   0  0
   -2.0180    1.3060   -0.1450 C   0  0
   -3.5630   -0.7090   -0.0250 C   0  0
   -3.0960    2.1460   -0.2770 N   0  0
   -4.5780    0.1780   -0.7520 C   0  0
   -2.9490    3.5040   -0.4340 C   0  0
   -4.4920    1.6230   -0.2480 C   0  0
   -1.9490    3.9590   -0.9380 O   0  0
   -4.0450    4.4000    0.0410 C   0  0
   -4.4900    5.4690   -0.7580 C   0  0
   -4.6510    4.1890    1.2910 C   0  0
   -5.5280    6.2970   -0.2850 C   0  0
   -5.6840    5.0510    1.7110 C   0  0
   -6.1100    6.0860    0.9300 N   0  0
    4.6210   -1.1920    2.3770 H   0  0
    5.2700   -4.5920   -1.1880 H   0  0
    7.0020   -5.6550    0.0230 H   0  0
    6.7560   -5.5690    1.7660 H   0  0
    7.9430   -4.5240    0.9900 H   0  0
    1.1430   -2.2540    0.3520 H   0  0
    3.0040   -3.5800   -3.5020 H   0  0
    4.7710   -3.6270   -2.9510 H   0  0
    3.5720   -4.7480   -2.3130 H   0  0
   -1.2480   -2.0310    0.2150 H   0  0
    1.4200    1.3710    0.0100 H   0  0
   -0.4790    2.8690   -0.2230 H   0  0
   -3.5470   -1.6960   -0.4940 H   0  0
   -3.8770   -0.8580    1.0100 H   0  0
   -4.3890    0.1500   -1.8280 H   0  0
   -5.5880   -0.2110   -0.6110 H   0  0
   -5.1410    2.2560   -0.8570 H   0  0
   -4.8630    1.6830    0.7750 H   0  0
   -4.0470    5.6580   -1.7250 H   0  0
   -4.3340    3.3770    1.9300 H   0  0
   -5.8670    7.1170   -0.8980 H   0  0
   -6.1490    4.8890    2.6720 H   0  0
  1  2  1  0
  2  3  2  0
  2  4  1  0
  3  5  1  0
  3  6  1  0
  4  7  2  0
  5  8  2  0
  7  9  1  0
  8 10  1  0
  9 11  2  0
  9 12  2  0
  9 13  1  0
 10 14  1  0
 13 15  1  0
 15 16  2  0
 15 17  1  0
 16 18  1  0
 17 19  2  0
 18 20  2  0
 18 21  1  0
 20 22  1  0
 21 23  1  0
 22 24  1  0
 22 25  1  0
 24 26  2  0
 24 27  1  0
 27 28  2  0
 27 29  1  0
 28 30  1  0
 29 31  2  0
 30 32  2  0
  7  8  1  0
 19 20  1  0
 23 25  1  0
 31 32  1  0
  4 33  1  0
  5 34  1  0
  6 35  1  0
  6 36  1  0
  6 37  1  0
 13 38  1  0
 14 39  1  0
 14 40  1  0
 14 41  1  0
 16 42  1  0
 17 43  1  0
 19 44  1  0
 21 45  1  0
 21 46  1  0
 23 47  1  0
 23 48  1  0
 25 49  1  0
 25 50  1  0
 28 51  1  0
 29 52  1  0
 30 53  1  0
 31 54  1  0
M  END
> <Name>
CHEMBL5274089

> <IC50 nM>
20

> <Molecule_ChEMBL_ID>
CHEMBL5274089

> <Smiles>
COc1cc(C)c(Cl)cc1S(=O)(=O)Nc1ccc2c(c1)CCCN2C(=O)c1ccncc1

$$$$
CHEMBL5285709
  SciTegic08162514323D

 55 59  0  0  0  0            999 V2000
    1.7520    0.3220    0.2580 S   0  0
    1.9140    1.0290   -0.9980 O   0  0
    1.7290    1.2030    1.4140 O   0  0
    0.3300   -0.4510    0.2050 N   0  0
    3.0740   -0.7720    0.4390 C   0  0
   -0.8070    0.2480    0.0660 C   0  0
    3.7050   -1.3010   -0.6990 C   0  0
    3.5180   -1.1290    1.7220 C   0  0
   -2.0570   -0.4160    0.0170 C   0  0
   -0.7730    1.6560   -0.0310 C   0  0
    4.7830   -2.1920   -0.5530 C   0  0
    4.5960   -2.0200    1.8710 C   0  0
   -3.2640    0.3120   -0.1270 C   0  0
   -1.9710    2.3940   -0.1760 C   0  0
    5.2310   -2.5530    0.7320 C   0  0
   -3.2380    1.7400   -0.2270 C   0  0
   -4.5470   -0.4400   -0.1780 C   0  0
    6.3480   -3.4750    0.8850 C   0  0
   -4.4020    2.4550   -0.3630 N   0  0
   -5.7270    0.4220    0.2810 C   0  0
    6.3050   -4.4790    1.8710 C   0  0
    7.4730   -3.3670    0.0450 C   0  0
   -4.4120    3.8280   -0.4420 C   0  0
   -5.7270    1.7710   -0.4460 C   0  0
    7.3830   -5.3690    2.0170 C   0  0
    8.5490   -4.2580    0.1910 C   0  0
   -3.5370    4.4750    0.0880 O   0  0
   -5.4860    4.4900   -1.1640 C   0  0
    8.5060   -5.2580    1.1780 C   0  0
   -5.9300    5.6890   -0.6920 O   0  0
   -6.1560    4.0640   -2.3150 C   0  0
   -6.9140    6.0310   -1.5740 C   0  0
   -7.0860    5.0720   -2.5800 C   0  0
    0.2990   -1.4470    0.2730 H   0  0
    3.3630   -1.0260   -1.6860 H   0  0
    3.0310   -0.7210    2.5970 H   0  0
   -2.0980   -1.4960    0.0900 H   0  0
    0.1660    2.1910    0.0040 H   0  0
    5.2600   -2.5920   -1.4380 H   0  0
    4.9260   -2.2850    2.8650 H   0  0
   -1.8850    3.4690   -0.2460 H   0  0
   -4.7090   -0.7700   -1.2050 H   0  0
   -4.4940   -1.3380    0.4390 H   0  0
   -5.6680    0.5840    1.3590 H   0  0
   -6.6660   -0.1020    0.1010 H   0  0
    5.4490   -4.5780    2.5250 H   0  0
    7.5240   -2.6040   -0.7190 H   0  0
   -5.9790    1.6290   -1.4960 H   0  0
   -6.5060    2.4100   -0.0220 H   0  0
    7.3500   -6.1370    2.7750 H   0  0
    9.4120   -4.1740   -0.4530 H   0  0
    9.3340   -5.9440    1.2910 H   0  0
   -5.9920    3.1560   -2.8770 H   0  0
   -7.4860    6.9450   -1.4940 H   0  0
   -7.7950    5.1030   -3.3970 H   0  0
  1  2  2  0
  1  3  2  0
  1  4  1  0
  1  5  1  0
  4  6  1  0
  5  7  2  0
  5  8  1  0
  6  9  2  0
  6 10  1  0
  7 11  1  0
  8 12  2  0
  9 13  1  0
 10 14  2  0
 11 15  2  0
 13 16  2  0
 13 17  1  0
 15 18  1  0
 16 19  1  0
 17 20  1  0
 18 21  2  0
 18 22  1  0
 19 23  1  0
 19 24  1  0
 21 25  1  0
 22 26  2  0
 23 27  2  0
 23 28  1  0
 25 29  2  0
 28 30  1  0
 28 31  2  0
 30 32  1  0
 31 33  1  0
 12 15  1  0
 14 16  1  0
 20 24  1  0
 26 29  1  0
 32 33  2  0
  4 34  1  0
  7 35  1  0
  8 36  1  0
  9 37  1  0
 10 38  1  0
 11 39  1  0
 12 40  1  0
 14 41  1  0
 17 42  1  0
 17 43  1  0
 20 44  1  0
 20 45  1  0
 21 46  1  0
 22 47  1  0
 24 48  1  0
 24 49  1  0
 25 50  1  0
 26 51  1  0
 29 52  1  0
 31 53  1  0
 32 54  1  0
 33 55  1  0
M  END
> <Name>
CHEMBL5285709

> <IC50 nM>
90

> <Molecule_ChEMBL_ID>
CHEMBL5285709

> <Smiles>
O=C(c1ccco1)N1CCCc2cc(NS(=O)(=O)c3ccc(-c4ccccc4)cc3)ccc21

$$$$
CHEMBL5289120
  SciTegic08162514323D

 62 64  0  0  0  0            999 V2000
    1.9630   -1.0680    0.8670 S   0  0
    2.3830   -2.3300    1.4490 O   0  0
    3.0330   -0.3710    0.1760 O   0  0
    0.8110   -1.3940   -0.2250 N   0  0
    1.3320   -0.0140    2.1660 C   0  0
    0.9300   -2.7110   -1.1600 S   0  0
   -0.2420   -0.5740   -0.3550 C   0  0
    2.2910   -0.0020    3.3580 C   0  0
    0.9960   -3.8650   -0.2810 O   0  0
   -0.2250   -2.7280   -2.0410 O   0  0
    2.4140   -2.6580   -2.1540 C   0  0
   -1.5590   -1.0920   -0.3670 C   0  0
   -0.0510    0.8200   -0.4800 C   0  0
    3.6230    0.6760    3.0370 C   0  0
    3.6130   -3.1760   -1.3570 C   0  0
   -2.6800   -0.2340   -0.5060 C   0  0
   -1.1600    1.6880   -0.6170 C   0  0
    4.7810   -0.3160    2.9380 C   0  0
    4.9020   -3.1950   -2.1780 C   0  0
   -2.4920    1.1820   -0.6310 C   0  0
   -4.0370   -0.8360   -0.5120 C   0  0
    6.1000   -3.7190   -1.3830 C   0  0
   -3.5720    2.0200   -0.7620 N   0  0
   -5.0530    0.0510   -1.2380 C   0  0
   -3.4240    3.3770   -0.9180 C   0  0
   -4.9690    1.4980   -0.7340 C   0  0
   -2.4260    3.8320   -1.4280 O   0  0
   -4.4790    4.2680   -0.4590 C   0  0
   -4.7110    5.4040   -1.1740 O   0  0
   -5.3200    4.1270    0.6470 C   0  0
   -5.7360    6.0020   -0.4960 C   0  0
   -6.1390    5.2580    0.6210 C   0  0
    0.3460   -0.3610    2.4690 H   0  0
    1.1890    0.9940    1.7770 H   0  0
    2.4530   -1.0140    3.7310 H   0  0
    1.8200    0.4610    4.2250 H   0  0
    2.2680   -3.2500   -3.0590 H   0  0
    2.5900   -1.6370   -2.4920 H   0  0
   -1.7230   -2.1580   -0.2690 H   0  0
    0.9430    1.2440   -0.4750 H   0  0
    3.8440    1.4550    3.7680 H   0  0
    3.5430    1.2700    2.1270 H   0  0
    3.7460   -2.5980   -0.4430 H   0  0
    3.4040   -4.1640   -0.9450 H   0  0
   -0.9550    2.7440   -0.7090 H   0  0
    4.6020   -1.0760    2.1760 H   0  0
    4.9340   -0.8280    3.8890 H   0  0
    5.7090    0.1970    2.6840 H   0  0
    4.7700   -3.7680   -3.0940 H   0  0
    5.1150   -2.2070   -2.5860 H   0  0
   -4.0220   -1.8220   -0.9800 H   0  0
   -4.3520   -0.9840    0.5240 H   0  0
    6.9980   -3.7270   -2.0000 H   0  0
    6.2770   -3.1000   -0.5020 H   0  0
    5.9200   -4.7380   -1.0430 H   0  0
   -4.8630    0.0250   -2.3120 H   0  0
   -6.0630   -0.3380   -1.0980 H   0  0
   -5.6150    2.1310   -1.3440 H   0  0
   -5.3400    1.5570    0.2890 H   0  0
   -5.3360    3.3200    1.3670 H   0  0
   -6.1760    6.9420   -0.7990 H   0  0
   -6.9240    5.5100    1.3200 H   0  0
  1  2  2  0
  1  3  2  0
  1  4  1  0
  1  5  1  0
  4  6  1  0
  4  7  1  0
  5  8  1  0
  6  9  2  0
  6 10  2  0
  6 11  1  0
  7 12  2  0
  7 13  1  0
  8 14  1  0
 11 15  1  0
 12 16  1  0
 13 17  2  0
 14 18  1  0
 15 19  1  0
 16 20  2  0
 16 21  1  0
 19 22  1  0
 20 23  1  0
 21 24  1  0
 23 25  1  0
 23 26  1  0
 25 27  2  0
 25 28  1  0
 28 29  1  0
 28 30  2  0
 29 31  1  0
 30 32  1  0
 17 20  1  0
 24 26  1  0
 31 32  2  0
  5 33  1  0
  5 34  1  0
  8 35  1  0
  8 36  1  0
 11 37  1  0
 11 38  1  0
 12 39  1  0
 13 40  1  0
 14 41  1  0
 14 42  1  0
 15 43  1  0
 15 44  1  0
 17 45  1  0
 18 46  1  0
 18 47  1  0
 18 48  1  0
 19 49  1  0
 19 50  1  0
 21 51  1  0
 21 52  1  0
 22 53  1  0
 22 54  1  0
 22 55  1  0
 24 56  1  0
 24 57  1  0
 26 58  1  0
 26 59  1  0
 30 60  1  0
 31 61  1  0
 32 62  1  0
M  END
> <Name>
CHEMBL5289120

> <IC50 nM>
50000

> <Molecule_ChEMBL_ID>
CHEMBL5289120

> <Smiles>
CCCCS(=O)(=O)N(c1ccc2c(c1)CCCN2C(=O)c1ccco1)S(=O)(=O)CCCC

$$$$
CHEMBL3605933
  SciTegic08162514323D

 38 40  0  0  0  0            999 V2000
   -2.9730    4.1540    0.0100 S   0  0
   -3.7050    3.7730   -1.1840 O   0  0
   -3.7170    3.9240    1.2360 O   0  0
   -1.6350    3.2440    0.0720 N   0  0
   -2.5590    5.8930   -0.0960 C   0  0
   -1.7360    1.9060    0.1560 C   0  0
   -0.4900    1.2170    0.2030 C   0  0
   -2.9490    1.1760    0.1950 C   0  0
    0.8340    1.6330    0.1850 N   0  0
   -0.4570   -0.1540    0.2890 C   0  0
   -2.9040   -0.2400    0.2830 C   0  0
    1.6350    0.4710    0.2600 C   0  0
    0.8030   -0.6680    0.3260 C   0  0
   -1.6560   -0.9160    0.3280 C   0  0
    1.2320   -2.0840    0.4160 C   0  0
    2.2150   -2.5960   -0.4590 C   0  0
    0.6520   -2.9240    1.3850 C   0  0
    2.7730   -1.8280   -1.3750 O   0  0
    2.6070   -3.9420   -0.3560 C   0  0
    1.0490   -4.2680    1.4820 C   0  0
    3.8950   -2.3400   -2.0820 C   0  0
    2.0250   -4.7770    0.6130 C   0  0
   -0.7320    3.6760    0.0510 H   0  0
   -3.4220    6.5570   -0.1410 H   0  0
   -1.9570    6.0680   -0.9860 H   0  0
   -1.9650    6.1780    0.7710 H   0  0
   -3.9020    1.6820    0.1600 H   0  0
    1.1660    2.5680    0.1290 H   0  0
   -3.8220   -0.8070    0.3120 H   0  0
    2.7170    0.4940    0.2640 H   0  0
   -1.6370   -1.9940    0.3940 H   0  0
   -0.1020   -2.5470    2.0620 H   0  0
    3.3590   -4.3380   -1.0220 H   0  0
    0.6020   -4.9100    2.2270 H   0  0
    4.2480   -1.5700   -2.7660 H   0  0
    4.6170   -2.7090   -1.3540 H   0  0
    3.5630   -3.1900   -2.6800 H   0  0
    2.3300   -5.8110    0.6870 H   0  0
  1  2  2  0
  1  3  2  0
  1  4  1  0
  1  5  1  0
  4  6  1  0
  6  7  2  0
  6  8  1  0
  7  9  1  0
  7 10  1  0
  8 11  2  0
  9 12  1  0
 10 13  1  0
 10 14  2  0
 13 15  1  0
 15 16  2  0
 15 17  1  0
 16 18  1  0
 16 19  1  0
 17 20  2  0
 18 21  1  0
 19 22  2  0
 11 14  1  0
 12 13  2  0
 20 22  1  0
  4 23  1  0
  5 24  1  0
  5 25  1  0
  5 26  1  0
  8 27  1  0
  9 28  1  0
 11 29  1  0
 12 30  1  0
 14 31  1  0
 17 32  1  0
 19 33  1  0
 20 34  1  0
 21 35  1  0
 21 36  1  0
 21 37  1  0
 22 38  1  0
M  END
> <Name>
CHEMBL3605933

> <IC50 nM>
235

> <Molecule_ChEMBL_ID>
CHEMBL3605933

> <Smiles>
COc1ccccc1-c1c[nH]c2c(NS(C)(=O)=O)cccc12

$$$$
CHEMBL1940548
  SciTegic08162514323D

 65 69  0  0  1  0            999 V2000
    4.6350    0.0630   -2.1040 S   0  0
    6.1840   -0.2850   -1.5270 C   0  0
    3.6130   -0.4280   -0.7700 C   0  0
    7.2460   -0.0140   -2.3440 N   0  0
    6.2970   -0.8180   -0.2730 N   0  0
    2.1720   -0.1820   -1.1250 C   0  0
    8.5020   -0.2930   -1.8830 C   0  0
    7.5490   -1.1000    0.1970 C   0  0
    1.8730    0.4020   -2.1410 O   0  0
    1.1090   -0.6830   -0.1760 C   0  0  2  0  0  0
    8.6860   -0.8440   -0.5980 C   0  0
    9.6780   -0.0100   -2.7440 C   0  0
    0.9730   -2.0760   -0.4120 O   0  0
   -0.2580    0.0330   -0.2970 C   0  0  2  0  0  0
    1.4610   -0.4690    1.3110 C   0  0
   -0.9470   -0.4140    0.9980 C   0  0  1  0  0  0
   -1.1700   -0.3630   -1.4750 C   0  0
    0.0100    1.5470   -0.2790 C   0  0
    0.1450   -0.1930    2.0450 C   0  0
   -2.2910    0.3010    1.2270 C   0  0  1  0  0  0
   -2.5940    0.2290   -1.3440 C   0  0  1  0  0  0
   -3.2440   -0.0430    0.0470 C   0  0  2  0  0  0
   -2.8730   -0.1660    2.5740 C   0  0
   -2.5510    1.6130   -1.6290 O   0  0
   -4.6700    0.5610    0.2620 C   0  0  2  0  0  0
   -4.2790    0.3910    2.8160 C   0  0
   -5.1800    0.1130    1.6330 C   0  0
   -5.6070    0.1660   -0.8750 C   0  0
   -4.6410    2.0960    0.2930 C   0  0
   -6.3650   -0.5100    1.8050 C   0  0
   -6.7810   -0.4630   -0.6800 C   0  0
   -7.2380   -0.8180    0.6660 C   0  0
   -8.3090   -1.3530    0.8360 O   0  0
    3.8790    0.1430    0.1210 H   0  0
    3.7680   -1.4860   -0.5640 H   0  0
    7.6680   -1.5210    1.1840 H   0  0
    9.6740   -1.0660   -0.2250 H   0  0
    9.3440    0.4280   -3.6860 H   0  0
   10.3770    0.6310   -2.2070 H   0  0
   10.1920   -0.9430   -2.9770 H   0  0
    1.7970   -2.4980   -0.1250 H   0  0
    1.9860   -1.3120    1.7400 H   0  0
    2.1130    0.3830    1.4320 H   0  0
   -1.1460   -1.4760    0.9510 H   0  0
   -0.7130   -0.0720   -2.4220 H   0  0
   -1.2680   -1.4470   -1.5140 H   0  0
    0.8010    1.8110    0.4240 H   0  0
   -0.8870    2.0940    0.0100 H   0  0
    0.3130    1.8970   -1.2660 H   0  0
    0.0140   -0.8440    2.8980 H   0  0
    0.1250    0.8240    2.4100 H   0  0
   -2.1350    1.3790    1.2680 H   0  0
   -3.2070   -0.2150   -2.1270 H   0  0
   -3.3750   -1.1270    0.0800 H   0  0
   -2.2210    0.1330    3.3950 H   0  0
   -2.9160   -1.2560    2.5960 H   0  0
   -3.1020    1.7620   -2.4120 H   0  0
   -4.2290    1.4690    2.9810 H   0  0
   -4.6910   -0.0410    3.7310 H   0  0
   -5.3280    0.4010   -1.8930 H   0  0
   -5.5330    2.5080    0.7620 H   0  0
   -4.5760    2.5000   -0.7170 H   0  0
   -3.7730    2.4530    0.8520 H   0  0
   -6.6860   -0.7930    2.7970 H   0  0
   -7.3990   -0.7090   -1.5310 H   0  0
  1  2  1  0
  1  3  1  0
  2  4  2  0
  2  5  1  0
  3  6  1  0
  4  7  1  0
  5  8  2  0
  6  9  2  0
  6 10  1  0
  7 11  2  0
  7 12  1  0
 10 13  1  0
 10 14  1  0
 10 15  1  0
 14 16  1  0
 14 17  1  0
 14 18  1  0
 15 19  1  0
 16 20  1  0
 17 21  1  0
 22 20  1  0
 20 23  1  0
 21 24  1  0
 22 25  1  0
 23 26  1  0
 25 27  1  0
 25 28  1  0
 25 29  1  0
 27 30  2  0
 28 31  2  0
 30 32  1  0
 32 33  2  0
  8 11  1  0
 16 19  1  0
 21 22  1  0
 26 27  1  0
 31 32  1  0
  3 34  1  0
  3 35  1  0
  8 36  1  0
 11 37  1  0
 12 38  1  0
 12 39  1  0
 12 40  1  0
 13 41  1  0
 15 42  1  0
 15 43  1  0
 16 44  1  0
 17 45  1  0
 17 46  1  0
 18 47  1  0
 18 48  1  0
 18 49  1  0
 19 50  1  0
 19 51  1  0
 20 52  1  0
 21 53  1  0
 22 54  1  0
 23 55  1  0
 23 56  1  0
 24 57  1  0
 26 58  1  0
 26 59  1  0
 28 60  1  0
 29 61  1  0
 29 62  1  0
 29 63  1  0
 30 64  1  0
 31 65  1  0
M  END
> <Name>
CHEMBL1940548

> <IC50 nM>
11.4

> <Molecule_ChEMBL_ID>
CHEMBL1940548

> <Smiles>
Cc1ccnc(SCC(=O)[C@@]2(O)CC[C@H]3[C@@H]4CCC5=CC(=O)C=C[C@]5(C)[C@H]4[C@@H](O)C[C@@]32C)n1

$$$$
CHEMBL1928875
  SciTegic08162514323D

 39 43  0  0  1  0            999 V2000
    3.3520   -1.5040   -0.9430 S   0  0
    4.2110   -0.0680   -1.1270 C   0  0
    1.6780   -1.0020   -0.6640 C   0  0  2  0  0  0
    5.5350    0.0470   -1.2830 N   0  0
    3.6520    1.1520   -1.1410 N   0  0
    1.3670    0.4880   -0.8130 C   0  0
    1.3130   -1.5220    0.6840 C   0  0
    5.7740    1.3670   -1.3870 N   0  0
    2.2540    1.4020   -1.0140 N   0  0
    4.6250    2.1000   -1.2990 C   0  0
   -0.0410    0.9280   -0.7270 C   0  0
    1.6780   -0.8030    1.8380 C   0  0
    0.6020   -2.7290    0.8050 C   0  0
   -1.0780   -0.0330   -0.7170 C   0  0
   -0.3440    2.3070   -0.6520 C   0  0
    1.3320   -1.2930    3.1090 C   0  0
    0.2580   -3.2170    2.0760 C   0  0
   -2.4340    0.3830   -0.6370 C   0  0
   -1.6910    2.7270   -0.5740 C   0  0
    1.6780   -0.6130    4.2010 F   0  0
    0.6230   -2.5000    3.2290 C   0  0
   -3.4340   -0.5310   -0.6070 N   0  0
   -2.7360    1.7730   -0.5700 C   0  0
   -4.7560   -0.1500   -0.6680 C   0  0
   -4.0140    2.2010   -0.4940 O   0  0
   -5.6310   -0.9800   -0.6070 O   0  0
   -5.1000    1.3200   -0.8180 C   0  0
    1.0590   -1.5630   -1.3670 H   0  0
    4.5180    3.1760   -1.3480 H   0  0
    2.2230    0.1250    1.7460 H   0  0
    0.3180   -3.2850   -0.0760 H   0  0
   -0.8320   -1.0860   -0.7710 H   0  0
    0.4470    3.0430   -0.6560 H   0  0
   -0.2870   -4.1450    2.1680 H   0  0
   -1.9200    3.7810   -0.5160 H   0  0
    0.3580   -2.8810    4.2050 H   0  0
   -3.2210   -1.5080   -0.5370 H   0  0
   -5.3850    1.5100   -1.8540 H   0  0
   -5.9530    1.5820   -0.1930 H   0  0
  1  2  1  0
  1  3  1  0
  2  4  2  0
  2  5  1  0
  3  6  1  0
  3  7  1  0
  4  8  1  0
  5  9  1  0
  5 10  1  0
  6 11  1  0
  7 12  2  0
  7 13  1  0
 11 14  2  0
 11 15  1  0
 12 16  1  0
 13 17  2  0
 14 18  1  0
 15 19  2  0
 16 20  1  0
 16 21  2  0
 18 22  1  0
 18 23  2  0
 22 24  1  0
 23 25  1  0
 24 26  2  0
 24 27  1  0
  6  9  2  0
  8 10  2  0
 17 21  1  0
 19 23  1  0
 25 27  1  0
  3 28  1  0
 10 29  1  0
 12 30  1  0
 13 31  1  0
 14 32  1  0
 15 33  1  0
 17 34  1  0
 19 35  1  0
 21 36  1  0
 22 37  1  0
 27 38  1  0
 27 39  1  0
M  END
> <Name>
CHEMBL1928875

> <IC50 nM>
10000

> <Molecule_ChEMBL_ID>
CHEMBL1928875

> <Smiles>
O=C1COc2ccc(C3=Nn4cnnc4SC3c3cccc(F)c3)cc2N1

$$$$
CHEMBL1215130
  SciTegic08162514323D

 52 55  0  0  1  0            999 V2000
   -2.7740   -3.1390   -4.7300 Cl  0  0
   -1.2170   -2.5490   -4.2850 C   0  0
   -0.1070   -2.5960   -5.1640 C   0  0
   -1.0490   -1.9980   -2.9980 C   0  0
   -0.2310   -3.1500   -6.4900 C   0  0
    1.1460   -2.1020   -4.7580 C   0  0
    0.2050   -1.5040   -2.5900 C   0  0
   -0.3260   -3.5980   -7.5570 N   0  0
    1.2990   -1.5550   -3.4720 C   0  0
    0.3590   -0.9710   -1.3360 N   0  0
   -0.4380   -1.1700   -0.4310 N   0  0
    1.4820   -0.1230   -0.9490 C   0  0  1  0  0  0
   -0.1270   -0.5960    0.6760 C   0  0
    1.5740    1.1620   -1.7650 C   0  0
    1.1620    0.1700    0.5100 C   0  0
   -0.9080   -0.6620    1.9480 C   0  0
    2.6780    2.0820   -1.2500 C   0  0
    0.3050    2.0140   -1.6760 C   0  0
   -0.4510    0.0140    3.0920 C   0  0
   -2.1040   -1.4020    2.0000 C   0  0
    2.2700    3.4120   -1.8690 C   0  0
    0.7810    3.4610   -1.5510 C   0  0
   -1.1820   -0.0450    4.2910 C   0  0
   -2.8360   -1.4630    3.1980 C   0  0
   -0.7400    0.5940    5.3580 O   0  0
   -2.3790   -0.7870    4.3420 C   0  0
    0.5530    1.1760    5.2970 C   0  0
   -3.1680   -0.8610    5.6100 C   0  0
   -2.7970   -0.2890    6.6080 O   0  0
   -4.2810   -1.5880    5.5430 O   0  0
   -1.8930   -1.9590   -2.3220 H   0  0
    1.9980   -2.1330   -5.4220 H   0  0
    2.2700   -1.1800   -3.1780 H   0  0
    2.4040   -0.6840   -1.0310 H   0  0
    1.7710    0.9180   -2.8010 H   0  0
    1.0100    1.2210    0.7130 H   0  0
    1.9240   -0.2090    1.1780 H   0  0
    3.6600    1.7660   -1.5660 H   0  0
    2.6720    2.1450   -0.1700 H   0  0
   -0.3010    1.7500   -0.8200 H   0  0
   -0.3070    1.8730   -2.5550 H   0  0
    0.4670    0.5820    3.0550 H   0  0
   -2.4630   -1.9260    1.1270 H   0  0
    2.4360    3.4040   -2.9370 H   0  0
    2.8090    4.2480   -1.4490 H   0  0
    0.2460    4.1270   -2.2130 H   0  0
    0.6290    3.8150   -0.5410 H   0  0
   -3.7540   -2.0350    3.2310 H   0  0
    0.7620    1.6450    6.2580 H   0  0
    1.2580    0.4100    4.9710 H   0  0
    0.5390    1.9610    4.5390 H   0  0
   -4.8360   -1.6760    6.3280 H   0  0
  1  2  1  0
  2  3  2  0
  2  4  1  0
  3  5  1  0
  3  6  1  0
  4  7  2  0
  5  8  3  0
  6  9  2  0
  7 10  1  0
 10 11  1  0
 10 12  1  0
 11 13  2  0
 12 14  1  0
 12 15  1  0
 13 16  1  0
 14 17  1  0
 14 18  1  0
 16 19  2  0
 16 20  1  0
 17 21  1  0
 18 22  1  0
 19 23  1  0
 20 24  2  0
 23 25  1  0
 23 26  2  0
 25 27  1  0
 26 28  1  0
 28 29  2  0
 28 30  1  0
  7  9  1  0
 13 15  1  0
 21 22  1  0
 24 26  1  0
  4 31  1  0
  6 32  1  0
  9 33  1  0
 12 34  1  0
 14 35  1  0
 15 36  1  0
 15 37  1  0
 17 38  1  0
 17 39  1  0
 18 40  1  0
 18 41  1  0
 19 42  1  0
 20 43  1  0
 21 44  1  0
 21 45  1  0
 22 46  1  0
 22 47  1  0
 24 48  1  0
 27 49  1  0
 27 50  1  0
 27 51  1  0
 30 52  1  0
M  END
> <Name>
CHEMBL1215130

> <IC50 nM>
10000

> <Molecule_ChEMBL_ID>
CHEMBL1215130

> <Smiles>
COc1cc(C2=NN(c3ccc(C#N)c(Cl)c3)[C@@H](C3CCCC3)C2)ccc1C(=O)O

$$$$
CHEMBL2419299
  SciTegic08162514323D

 40 43  0  0  1  0            999 V2000
   -0.5640   -3.9040    1.4450 F   0  0
   -0.6910   -2.7620    0.7720 C   0  0
   -1.9760   -2.2500    0.4750 C   0  0
    0.4670   -2.0660    0.3520 C   0  0
   -3.0700   -2.9280    0.8810 O   0  0
   -2.1090   -1.0200   -0.2360 C   0  0
    0.3380   -0.8540   -0.3630 C   0  0
   -4.3550   -2.6500    0.3070 C   0  0
   -3.3400   -0.5160   -0.4940 N   0  0
   -0.9430   -0.3280   -0.6580 C   0  0
    1.5470   -0.1290   -0.8050 C   0  0
   -4.4820   -1.2380   -0.2320 C   0  0
    1.8750    1.1330   -0.4760 C   0  0
    2.6060   -0.7230   -1.7110 C   0  0  1  0  0  0
   -5.5700   -0.7540   -0.4350 O   0  0
    1.0880    2.0470    0.4080 C   0  0
    3.1330    1.4860   -1.1210 C   0  0
    3.5670    0.3790   -1.8630 N   0  0
    3.2580   -1.9650   -1.1170 C   0  0
    0.3630    1.5250    1.4960 C   0  0
    1.0740    3.4320    0.1560 C   0  0
    3.7310    2.5350   -1.0570 O   0  0
   -0.3750    2.3850    2.3260 C   0  0
    0.3340    4.2910    0.9860 C   0  0
   -0.3910    3.7680    2.0720 C   0  0
   -1.0900    4.5820    2.8600 F   0  0
    1.4450   -2.4630    0.5780 H   0  0
   -4.5140   -3.3540   -0.5120 H   0  0
   -5.1210   -2.8480    1.0590 H   0  0
   -3.4360    0.4040   -0.8790 H   0  0
   -1.0250    0.6020   -1.2030 H   0  0
    2.1760   -0.9530   -2.6740 H   0  0
    4.4030    0.3440   -2.4120 H   0  0
    4.1600   -2.2310   -1.6700 H   0  0
    3.5200   -1.8010   -0.0700 H   0  0
    2.5780   -2.8160   -1.1600 H   0  0
    0.3690    0.4650    1.6990 H   0  0
    1.6270    3.8420   -0.6760 H   0  0
   -0.9320    1.9800    3.1600 H   0  0
    0.3260    5.3540    0.7890 H   0  0
  1  2  1  0
  2  3  2  0
  2  4  1  0
  3  5  1  0
  3  6  1  0
  4  7  2  0
  5  8  1  0
  6  9  1  0
  6 10  2  0
  7 11  1  0
  8 12  1  0
 11 13  2  0
 11 14  1  0
 12 15  2  0
 13 16  1  0
 13 17  1  0
 14 18  1  0
 14 19  1  0
 16 20  2  0
 16 21  1  0
 17 22  2  0
 20 23  1  0
 21 24  2  0
 23 25  2  0
 25 26  1  0
  7 10  1  0
  9 12  1  0
 17 18  1  0
 24 25  1  0
  4 27  1  0
  8 28  1  0
  8 29  1  0
  9 30  1  0
 10 31  1  0
 14 32  1  0
 18 33  1  0
 19 34  1  0
 19 35  1  0
 19 36  1  0
 20 37  1  0
 21 38  1  0
 23 39  1  0
 24 40  1  0
M  END
> <Name>
CHEMBL2419299

> <IC50 nM>
5000

> <Molecule_ChEMBL_ID>
CHEMBL2419299

> <Smiles>
CC1NC(=O)C(c2ccc(F)cc2)=C1c1cc(F)c2c(c1)NC(=O)CO2

$$$$
CHEMBL1917256
  SciTegic08162514323D

 73 78  0  0  1  0            999 V2000
    2.3630   -3.1660    0.1000 S   0  0
    3.7190   -3.5410   -0.8320 C   0  0
    2.9300   -1.8340    1.0800 C   0  0
    4.9510   -3.2270   -0.3280 N   0  0
    3.5170   -4.1390   -2.0450 N   0  0
    3.0660   -0.6030    0.2250 C   0  0
    6.0510   -3.5270   -1.0780 C   0  0
    4.6130   -4.4430   -2.8030 C   0  0
    4.0190   -0.4530   -0.5020 O   0  0
    1.9760    0.4400    0.3030 C   0  0  2  0  0  0
    5.9100   -4.1460   -2.3380 C   0  0
    1.8080    0.7750    1.6760 O   0  0
    0.6270    0.0020   -0.2950 C   0  0  2  0  0  0
    2.2930    1.7250   -0.4800 C   0  0
    2.9390    1.1970    2.2350 C   0  0
   -0.0920    1.3560   -0.3500 C   0  0  1  0  0  0
   -0.2230   -0.9430    0.5720 C   0  0
    0.8730   -0.5640   -1.7010 C   0  0
    0.9550    2.2540   -1.0060 C   0  0
    3.9940    1.2700    1.6490 O   0  0
    2.8550    1.5840    3.6370 C   0  0
   -1.4670    1.2620   -1.0350 C   0  0  1  0  0  0
   -1.6660   -1.0860    0.0370 C   0  0  1  0  0  0
    1.6520    1.4510    4.2620 O   0  0
    3.8590    2.0860    4.4650 C   0  0
   -2.3580    0.2890   -0.2230 C   0  0  2  0  0  0
   -2.0900    2.6640   -1.0720 C   0  0
   -1.6430   -1.8790   -1.1350 O   0  0
    1.9060    1.8870    5.5310 C   0  0
    3.2400    2.2830    5.6990 C   0  0
   -3.8240    0.2070   -0.7640 C   0  0  2  0  0  0
   -3.5080    2.6430   -1.6460 C   0  0
   -4.3990    1.6060   -0.9920 C   0  0
   -4.6900   -0.5980    0.2440 C   0  0
   -3.8870   -0.4670   -2.1410 C   0  0
   -5.6660    1.9280   -0.6520 C   0  0
   -6.1960   -0.4880   -0.0160 C   0  0
   -6.6190    0.9570   -0.0920 C   0  0
   -7.7070    1.3130    0.2950 O   0  0
    2.2210   -1.6460    1.8870 H   0  0
    3.8940   -2.0900    1.5180 H   0  0
    7.0350   -3.2910   -0.7030 H   0  0
    4.4820   -4.9180   -3.7660 H   0  0
    6.7790   -4.3850   -2.9340 H   0  0
    2.7870    2.4530    0.1470 H   0  0
    2.9550    1.5290   -1.3120 H   0  0
   -0.2520    1.7190    0.6580 H   0  0
    0.2600   -1.9200    0.6520 H   0  0
   -0.2760   -0.5590    1.5920 H   0  0
    1.5600    0.0570   -2.2750 H   0  0
   -0.0610   -0.6310   -2.2600 H   0  0
    1.2990   -1.5660   -1.6440 H   0  0
    0.9120    2.1640   -2.0820 H   0  0
    0.8050    3.2930   -0.7600 H   0  0
   -1.3560    0.8930   -2.0570 H   0  0
   -2.2400   -1.6520    0.7680 H   0  0
    4.8920    2.2810    4.2090 H   0  0
   -2.4400    0.7420    0.7680 H   0  0
   -1.4750    3.3400   -1.6660 H   0  0
   -2.1230    3.0820   -0.0640 H   0  0
   -1.3690   -2.7710   -0.8690 H   0  0
    1.1540    1.9180    6.3090 H   0  0
    3.6950    2.6660    6.6040 H   0  0
   -3.9460    3.6390   -1.5550 H   0  0
   -3.4590    2.4300   -2.7130 H   0  0
   -4.4940   -0.2440    1.2580 H   0  0
   -4.4050   -1.6500    0.2340 H   0  0
   -4.8400   -0.2580   -2.6290 H   0  0
   -3.0760   -0.1130   -2.7790 H   0  0
   -3.7910   -1.5490   -2.0470 H   0  0
   -6.0080    2.9430   -0.7990 H   0  0
   -6.4530   -0.9840   -0.9530 H   0  0
   -6.7500   -0.9940    0.7760 H   0  0
  1  2  1  0
  1  3  1  0
  2  4  2  0
  2  5  1  0
  3  6  1  0
  4  7  1  0
  5  8  2  0
  6  9  2  0
  6 10  1  0
  7 11  2  0
 10 12  1  0
 10 13  1  0
 10 14  1  0
 12 15  1  0
 13 16  1  0
 13 17  1  0
 13 18  1  0
 14 19  1  0
 15 20  2  0
 15 21  1  0
 16 22  1  0
 17 23  1  0
 21 24  1  0
 21 25  2  0
 26 22  1  0
 22 27  1  0
 23 28  1  0
 24 29  1  0
 25 30  1  0
 26 31  1  0
 27 32  1  0
 31 33  1  0
 31 34  1  0
 31 35  1  0
 33 36  2  0
 34 37  1  0
 36 38  1  0
 38 39  2  0
  8 11  1  0
 16 19  1  0
 23 26  1  0
 29 30  2  0
 32 33  1  0
 37 38  1  0
  3 40  1  0
  3 41  1  0
  7 42  1  0
  8 43  1  0
 11 44  1  0
 14 45  1  0
 14 46  1  0
 16 47  1  0
 17 48  1  0
 17 49  1  0
 18 50  1  0
 18 51  1  0
 18 52  1  0
 19 53  1  0
 19 54  1  0
 22 55  1  0
 23 56  1  0
 25 57  1  0
 26 58  1  0
 27 59  1  0
 27 60  1  0
 28 61  1  0
 29 62  1  0
 30 63  1  0
 32 64  1  0
 32 65  1  0
 34 66  1  0
 34 67  1  0
 35 68  1  0
 35 69  1  0
 35 70  1  0
 36 71  1  0
 37 72  1  0
 37 73  1  0
M  END
> <Name>
CHEMBL1917256

> <IC50 nM>
9.7

> <Molecule_ChEMBL_ID>
CHEMBL1917256

> <Smiles>
C[C@]12CCC(=O)C=C1CC[C@@H]1[C@@H]2[C@@H](O)C[C@@]2(C)[C@H]1CC[C@]2(OC(=O)c1ccco1)C(=O)CSc1ncccn1

$$$$
CHEMBL1911661
  SciTegic08162514323D

 60 63  0  0  1  0            999 V2000
   -5.7890   -0.3570    0.9280 S   0  0
   -6.1450   -1.7360    0.6350 O   0  0
   -6.9340    0.5370    0.9400 O   0  0
   -4.6950    0.1820   -0.2690 C   0  0
   -4.9920   -0.2950    2.5280 C   0  0
   -3.3160    0.2600    0.0100 C   0  0
   -5.1620    0.5550   -1.5470 C   0  0
   -2.4280    0.7050   -0.9940 C   0  0
   -4.2660    1.0040   -2.5490 C   0  0
   -2.8890    1.0800   -2.2850 C   0  0
   -0.9880    0.7830   -0.6970 C   0  0
   -4.5180    1.4530   -3.9650 C   0  0
   -2.1990    1.5160   -3.3400 O   0  0
   -0.6930    0.4180    0.7580 C   0  0
   -0.4040    2.1410   -1.0940 C   0  0
   -0.6090   -0.3300   -1.6740 C   0  0
   -3.0720    1.7700   -4.4530 C   0  0
    0.8030    0.2560    1.0350 C   0  0  1  0  0  0
    1.5060    1.1230    0.1740 O   0  0
    1.0310    0.7210    2.4730 C   0  0
    1.2970   -1.1700    0.7890 C   0  0
    2.3770    0.8460    2.7030 F   0  0
    0.5040   -0.1990    3.3400 F   0  0
    0.4220    1.9340    2.6660 F   0  0
    2.7990   -1.2700    0.9770 C   0  0
    3.4080   -1.5740    2.2190 N   0  0
    3.8130   -1.0940    0.0160 C   0  0
    4.7790   -1.5800    2.0060 C   0  0
    4.9750   -1.2890    0.6780 C   0  0
    5.8610   -1.8180    2.8830 C   0  0
    6.2740   -1.2150    0.1190 C   0  0
    7.1780   -1.7520    2.3580 C   0  0
    7.3770   -1.4510    0.9810 C   0  0
    8.7110   -1.3850    0.4490 C   0  0
    9.7870   -1.3320    0.0200 N   0  0
   -4.2890   -1.1070    2.7110 H   0  0
   -5.7480   -0.3220    3.3130 H   0  0
   -4.4470    0.6450    2.6250 H   0  0
   -2.9450   -0.0200    0.9850 H   0  0
   -6.2190    0.4980   -1.7670 H   0  0
   -5.1510    2.3300   -3.9780 H   0  0
   -4.9810    0.6680   -4.5430 H   0  0
   -1.2380   -0.4800    1.0470 H   0  0
   -1.1330    1.1500    1.4360 H   0  0
   -1.1250    2.7500   -1.6390 H   0  0
    0.4710    2.0120   -1.7320 H   0  0
   -0.0940    2.6990   -0.2130 H   0  0
   -1.0550   -0.1520   -2.6520 H   0  0
    0.4730   -0.3960   -1.7810 H   0  0
   -0.9690   -1.2950   -1.3140 H   0  0
   -2.7770    1.1330   -5.2750 H   0  0
   -2.9610    2.8010   -4.7560 H   0  0
    1.8240    0.5880   -0.5700 H   0  0
    1.0330   -1.5000   -0.2170 H   0  0
    0.7990   -1.8710    1.4590 H   0  0
    2.9360   -1.7480    3.0740 H   0  0
    3.6760   -0.8540   -1.0330 H   0  0
    5.6930   -2.0450    3.9220 H   0  0
    6.4120   -0.9840   -0.9300 H   0  0
    8.0160   -1.9320    3.0120 H   0  0
  1  2  2  0
  1  3  2  0
  1  4  1  0
  1  5  1  0
  4  6  2  0
  4  7  1  0
  6  8  1  0
  7  9  2  0
  8 10  2  0
  8 11  1  0
  9 12  1  0
 10 13  1  0
 11 14  1  0
 11 15  1  0
 11 16  1  0
 12 17  1  0
 14 18  1  0
 18 19  1  0
 18 20  1  0
 18 21  1  0
 20 22  1  0
 20 23  1  0
 20 24  1  0
 21 25  1  0
 25 26  1  0
 25 27  2  0
 26 28  1  0
 27 29  1  0
 28 30  1  0
 29 31  1  0
 30 32  2  0
 31 33  2  0
 33 34  1  0
 34 35  3  0
  9 10  1  0
 13 17  1  0
 28 29  2  0
 32 33  1  0
  5 36  1  0
  5 37  1  0
  5 38  1  0
  6 39  1  0
  7 40  1  0
 12 41  1  0
 12 42  1  0
 14 43  1  0
 14 44  1  0
 15 45  1  0
 15 46  1  0
 15 47  1  0
 16 48  1  0
 16 49  1  0
 16 50  1  0
 17 51  1  0
 17 52  1  0
 19 53  1  0
 21 54  1  0
 21 55  1  0
 26 56  1  0
 27 57  1  0
 30 58  1  0
 31 59  1  0
 32 60  1  0
M  END
> <Name>
CHEMBL1911661

> <IC50 nM>
5

> <Molecule_ChEMBL_ID>
CHEMBL1911661

> <Smiles>
CC(C)(CC(O)(Cc1cc2cc(C#N)ccc2[nH]1)C(F)(F)F)c1cc(S(C)(=O)=O)cc2c1OCC2

$$$$
CHEMBL1911664
  SciTegic08162514323D

 60 63  0  0  1  0            999 V2000
   -5.7700    0.5390    1.3650 S   0  0
   -5.5200   -0.2460    2.5610 O   0  0
   -7.1370    0.4280    0.8830 O   0  0
   -4.7190   -0.0100    0.1330 C   0  0
   -5.4200    2.2560    1.7170 C   0  0
   -3.3380   -0.1350    0.3790 C   0  0
   -5.2270   -0.3420   -1.1410 C   0  0
   -2.4860   -0.5940   -0.6520 C   0  0
   -4.3650   -0.7990   -2.1720 C   0  0
   -2.9880   -0.9320   -1.9380 C   0  0
   -1.0450   -0.7230   -0.3890 C   0  0
   -4.6600   -1.2030   -3.5920 C   0  0
   -2.3380   -1.3790   -3.0120 O   0  0
   -0.6620   -0.1210    0.9650 C   0  0
   -0.2090   -0.1620   -1.5390 C   0  0
   -1.0700   -2.2520   -0.3670 C   0  0
   -3.2440   -1.6040   -4.1040 C   0  0
    0.8440   -0.1520    1.2210 C   0  0  2  0  0  0
    1.4340   -1.0230    0.2830 O   0  0
    1.0370   -0.7500    2.6150 C   0  0
    1.4960    1.2230    1.0740 C   0  0
    0.3650    0.0120    3.5350 F   0  0
    2.3730   -0.7680    2.9240 F   0  0
    0.5450   -2.0310    2.6350 F   0  0
    2.9840    1.1000    0.8300 C   0  0
    3.9550    1.3010    1.8440 N   0  0
    3.6500    0.7830   -0.3690 C   0  0
    5.1950    1.1060    1.2560 C   0  0
    4.9670    0.7990   -0.0630 C   0  0
    6.5060    1.1740    1.7830 C   0  0
    6.0330    0.5370   -0.9570 C   0  0
    7.5920    0.9160    0.9060 C   0  0
    7.3630    0.5980   -0.4630 C   0  0
    8.9410    0.9770    1.4080 C   0  0
   10.0270    1.0250    1.8130 N   0  0
   -4.3890    2.4510    2.0140 H   0  0
   -6.0690    2.6020    2.5220 H   0  0
   -5.6330    2.8590    0.8340 H   0  0
   -2.9380    0.1170    1.3500 H   0  0
   -6.2850   -0.2480   -1.3360 H   0  0
   -5.0700   -0.3710   -4.1470 H   0  0
   -5.3560   -2.0310   -3.6210 H   0  0
   -1.2010   -0.6170    1.7730 H   0  0
   -1.0490    0.8950    1.0570 H   0  0
    0.4410   -0.9220   -1.9750 H   0  0
    0.4200    0.6580   -1.1950 H   0  0
   -0.8520    0.2190   -2.3320 H   0  0
   -1.3030   -2.6460   -1.3570 H   0  0
   -0.1090   -2.6500   -0.0430 H   0  0
   -1.8320   -2.6150    0.3220 H   0  0
   -3.1990   -2.6480   -4.3810 H   0  0
   -2.9320   -1.0080   -4.9470 H   0  0
    2.2070   -1.4240    0.7090 H   0  0
    1.3220    1.8280    1.9630 H   0  0
    1.0390    1.7790    0.2560 H   0  0
    3.7750    1.5350    2.7930 H   0  0
    3.1930    0.5720   -1.3300 H   0  0
    6.6660    1.4180    2.8240 H   0  0
    5.8540    0.2970   -1.9940 H   0  0
    8.1900    0.4020   -1.1310 H   0  0
  1  2  2  0
  1  3  2  0
  1  4  1  0
  1  5  1  0
  4  6  2  0
  4  7  1  0
  6  8  1  0
  7  9  2  0
  8 10  2  0
  8 11  1  0
  9 12  1  0
 10 13  1  0
 11 14  1  0
 11 15  1  0
 11 16  1  0
 12 17  1  0
 14 18  1  0
 18 19  1  0
 18 20  1  0
 18 21  1  0
 20 22  1  0
 20 23  1  0
 20 24  1  0
 21 25  1  0
 25 26  1  0
 25 27  2  0
 26 28  1  0
 27 29  1  0
 28 30  1  0
 29 31  1  0
 30 32  2  0
 31 33  2  0
 32 34  1  0
 34 35  3  0
  9 10  1  0
 13 17  1  0
 28 29  2  0
 32 33  1  0
  5 36  1  0
  5 37  1  0
  5 38  1  0
  6 39  1  0
  7 40  1  0
 12 41  1  0
 12 42  1  0
 14 43  1  0
 14 44  1  0
 15 45  1  0
 15 46  1  0
 15 47  1  0
 16 48  1  0
 16 49  1  0
 16 50  1  0
 17 51  1  0
 17 52  1  0
 19 53  1  0
 21 54  1  0
 21 55  1  0
 26 56  1  0
 27 57  1  0
 30 58  1  0
 31 59  1  0
 33 60  1  0
M  END
> <Name>
CHEMBL1911664

> <IC50 nM>
2

> <Molecule_ChEMBL_ID>
CHEMBL1911664

> <Smiles>
CC(C)(C[C@@](O)(Cc1cc2ccc(C#N)cc2[nH]1)C(F)(F)F)c1cc(S(C)(=O)=O)cc2c1OCC2

$$$$
CHEMBL1929041
  SciTegic08162514323D

 41 44  0  0  0  0            999 V2000
   -1.4920   -2.7560    2.5720 Cl  0  0
   -1.6640   -1.3240    1.6410 C   0  0
   -2.9550   -0.8090    1.3300 C   0  0
   -0.5040   -0.6560    1.1780 C   0  0
   -4.0570   -1.4550    1.7710 O   0  0
   -3.0880    0.3930    0.5660 C   0  0
   -0.6660    0.5180    0.4180 C   0  0
   -5.3380   -1.2030    1.1780 C   0  0
   -4.3180    0.8960    0.3010 N   0  0
   -1.9260    1.0620    0.1000 C   0  0
    0.5470    1.2150   -0.0700 C   0  0
   -5.4630    0.1890    0.5960 C   0  0
    1.6540    0.6800   -0.6210 N   0  0
    0.6640    2.6130    0.0020 C   0  0
   -6.5510    0.6740    0.3850 O   0  0
    2.4750    1.6990   -0.9020 N   0  0
    1.9120   -0.6330   -0.8570 C   0  0
    1.9340    2.8930   -0.5510 C   0  0
    3.0510   -1.2660   -0.3090 C   0  0
    1.0230   -1.3750   -1.6620 C   0  0
    2.6230    4.2250   -0.7440 C   0  0
    3.2910   -2.6270   -0.5720 C   0  0
    4.0200   -0.5220    0.5490 C   0  0
    1.2680   -2.7340   -1.9200 C   0  0
    2.8810    4.4180   -2.0760 F   0  0
    3.8030    4.2340   -0.0450 F   0  0
    1.8130    5.2310   -0.2830 F   0  0
    2.4000   -3.3590   -1.3750 C   0  0
    2.6330   -4.6490   -1.6190 F   0  0
    0.4840   -1.0330    1.4000 H   0  0
   -6.1080   -1.3810    1.9300 H   0  0
   -5.4860   -1.9340    0.3810 H   0  0
   -4.4120    1.8030   -0.1150 H   0  0
   -1.9960    1.9690   -0.4860 H   0  0
   -0.0530    3.3240    0.3930 H   0  0
    0.1450   -0.9140   -2.0920 H   0  0
    4.1600   -3.1130   -0.1540 H   0  0
    4.6500   -1.2310    1.0840 H   0  0
    4.5920    0.1720   -0.0680 H   0  0
    3.4730    0.0620    1.2890 H   0  0
    0.5820   -3.2950   -2.5370 H   0  0
  1  2  1  0
  2  3  2  0
  2  4  1  0
  3  5  1  0
  3  6  1  0
  4  7  2  0
  5  8  1  0
  6  9  1  0
  6 10  2  0
  7 11  1  0
  8 12  1  0
 11 13  1  0
 11 14  2  0
 12 15  2  0
 13 16  1  0
 13 17  1  0
 14 18  1  0
 17 19  2  0
 17 20  1  0
 18 21  1  0
 19 22  1  0
 19 23  1  0
 20 24  2  0
 21 25  1  0
 21 26  1  0
 21 27  1  0
 22 28  2  0
 28 29  1  0
  7 10  1  0
  9 12  1  0
 16 18  2  0
 24 28  1  0
  4 30  1  0
  8 31  1  0
  8 32  1  0
  9 33  1  0
 10 34  1  0
 14 35  1  0
 20 36  1  0
 22 37  1  0
 23 38  1  0
 23 39  1  0
 23 40  1  0
 24 41  1  0
M  END
> <Name>
CHEMBL1929041

> <IC50 nM>
200

> <Molecule_ChEMBL_ID>
CHEMBL1929041

> <Smiles>
Cc1cc(F)ccc1-n1nc(C(F)(F)F)cc1-c1cc(Cl)c2c(c1)NC(=O)CO2

$$$$
CHEMBL1762200
  SciTegic08162514323D

 48 51  0  0  0  0            999 V2000
   -0.7520    1.4730    0.5330 F   0  0
   -0.6470    0.1430    0.4880 C   0  0
   -1.8300   -0.6410    0.5550 C   0  0
    0.6310   -0.5000    0.3810 C   0  0
   -1.7600   -2.0530    0.5180 C   0  0
   -3.1310    0.0140    0.6640 C   0  0
    0.6910   -1.9280    0.3110 C   0  0
    1.9200    0.2870    0.3520 C   0  0
   -2.8590   -2.8030    0.5920 F   0  0
   -0.5060   -2.6880    0.3980 C   0  0
   -4.1060   -0.1130   -0.3590 C   0  0
   -3.4400    0.7910    1.8130 C   0  0
    1.8710   -2.5860    0.1560 N   0  0
    1.9690    1.5720    0.2680 N   0  0
    3.2150   -0.5040    0.4360 C   0  0
   -4.1080   -0.7870   -1.5740 N   0  0
   -5.3260    0.5020   -0.2540 C   0  0
   -4.7070    1.4260    1.9140 C   0  0
    3.1210   -1.8850   -0.2440 C   0  0
    3.2030    2.3090    0.2480 O   0  0
   -5.3670   -0.5530   -2.1820 C   0  0
   -5.6640    1.2870    0.8770 C   0  0
   -6.1190    0.2700   -1.3220 C   0  0
    4.3280   -2.7380    0.1620 C   0  0
    3.1230   -1.7250   -1.7700 C   0  0
    2.8160    3.6700    0.1480 C   0  0
    4.0640    4.5530    0.1190 C   0  0
   -0.4750   -3.7700    0.3710 H   0  0
   -2.7230    0.9100    2.6110 H   0  0
    1.9080   -3.5800    0.2770 H   0  0
    4.0490    0.0470   -0.0040 H   0  0
    3.4630   -0.6290    1.4900 H   0  0
   -3.3690   -1.3340   -1.9510 H   0  0
   -4.9420    2.0200    2.7870 H   0  0
   -5.6580   -0.9550   -3.1430 H   0  0
   -6.6270    1.7700    0.9590 H   0  0
   -7.1250    0.6310   -1.4940 H   0  0
    4.3630   -2.9040    1.2380 H   0  0
    5.2580   -2.2520   -0.1310 H   0  0
    4.2930   -3.7130   -0.3240 H   0  0
    2.2730   -1.1390   -2.1170 H   0  0
    3.0780   -2.6990   -2.2580 H   0  0
    4.0310   -1.2250   -2.1040 H   0  0
    2.2340    3.7950   -0.7660 H   0  0
    2.1930    3.9120    1.0100 H   0  0
    3.7910    5.6060    0.0350 H   0  0
    4.6580    4.4120    1.0210 H   0  0
    4.6930    4.3050   -0.7360 H   0  0
  1  2  1  0
  2  3  2  0
  2  4  1  0
  3  5  1  0
  3  6  1  0
  4  7  2  0
  4  8  1  0
  5  9  1  0
  5 10  2  0
  6 11  2  0
  6 12  1  0
  7 13  1  0
  8 14  2  0
  8 15  1  0
 11 16  1  0
 11 17  1  0
 12 18  2  0
 13 19  1  0
 14 20  1  0
 16 21  1  0
 17 22  2  0
 17 23  1  0
 19 24  1  0
 19 25  1  0
 20 26  1  0
 26 27  1  0
  7 10  1  0
 15 19  1  0
 18 22  1  0
 21 23  2  0
 10 28  1  0
 12 29  1  0
 13 30  1  0
 15 31  1  0
 15 32  1  0
 16 33  1  0
 18 34  1  0
 21 35  1  0
 22 36  1  0
 23 37  1  0
 24 38  1  0
 24 39  1  0
 24 40  1  0
 25 41  1  0
 25 42  1  0
 25 43  1  0
 26 44  1  0
 26 45  1  0
 27 46  1  0
 27 47  1  0
 27 48  1  0
M  END
> <Name>
CHEMBL1762200

> <IC50 nM>
6.9

> <Molecule_ChEMBL_ID>
CHEMBL1762200

> <Smiles>
CCO/N=C1\CC(C)(C)Nc2cc(F)c(-c3cccc4cc[nH]c34)c(F)c21

$$$$
CHEMBL70449
  SciTegic08162514323D

 54 56  0  0  0  0            999 V2000
    3.9820   -0.4820   -2.7030 S   0  0
    5.2990    0.1330   -2.7330 O   0  0
    3.9860   -1.8140   -2.1230 O   0  0
    3.0310    0.4490   -1.7810 N   0  0
    3.3550   -0.5820   -4.3750 C   0  0
    1.8750   -0.0660   -1.2500 C   0  0
    1.2150    0.5700   -0.1720 C   0  0
    1.3440   -1.2500   -1.7970 C   0  0
    0.0230    0.0080    0.3490 C   0  0
    1.7710    1.8280    0.4160 C   0  0
    0.1640   -1.8030   -1.2780 C   0  0
   -0.6450    0.5960    1.3940 N   0  0
   -0.4940   -1.1760   -0.2090 C   0  0
   -1.4000    1.8400    1.2050 C   0  0
   -0.6070   -0.0210    2.7280 C   0  0
   -2.6540    1.6070    0.4370 C   0  0
    0.1820   -1.2810    2.7280 C   0  0
   -2.9160    2.3220   -0.7500 C   0  0
   -3.5860    0.6640    0.9060 C   0  0
   -0.4770   -2.5230    2.7280 C   0  0
    1.5860   -1.2300    2.7280 C   0  0
   -4.1060    2.0880   -1.4610 C   0  0
   -1.9430    3.3240   -1.2640 C   0  0
   -4.7750    0.4320    0.1930 C   0  0
    0.2690   -3.7150    2.7280 C   0  0
    2.3340   -2.4220    2.7280 C   0  0
   -5.0350    1.1430   -0.9900 C   0  0
   -1.7360    4.2890   -0.3110 F   0  0
   -2.4430    3.9040   -2.4010 F   0  0
   -0.7560    2.7030   -1.5490 F   0  0
    1.6760   -3.6640    2.7280 C   0  0
    3.2850    1.3980   -1.6000 H   0  0
    3.8610   -1.3180   -5.0000 H   0  0
    3.4550    0.3890   -4.8600 H   0  0
    2.2970   -0.8380   -4.3520 H   0  0
    1.8340   -1.7500   -2.6230 H   0  0
    1.5180    2.6720   -0.2250 H   0  0
    1.4060    1.9450    1.4350 H   0  0
    2.8590    1.7580    0.4570 H   0  0
   -0.2380   -2.7110   -1.7010 H   0  0
   -1.4020   -1.6210    0.1760 H   0  0
   -0.7790    2.5610    0.6740 H   0  0
   -1.6450    2.2640    2.1800 H   0  0
   -1.6270   -0.2300    3.0530 H   0  0
   -0.1700    0.6820    3.4350 H   0  0
   -3.3930    0.1110    1.8140 H   0  0
   -1.5570   -2.5700    2.7280 H   0  0
    2.1000   -0.2790    2.7280 H   0  0
   -4.3130    2.6310   -2.3710 H   0  0
   -5.4880   -0.2950    0.5550 H   0  0
   -0.2340   -4.6700    2.7280 H   0  0
    3.4120   -2.3830    2.7280 H   0  0
   -5.9470    0.9650   -1.5390 H   0  0
    2.2480   -4.5800    2.7280 H   0  0
  1  2  2  0
  1  3  2  0
  1  4  1  0
  1  5  1  0
  4  6  1  0
  6  7  2  0
  6  8  1  0
  7  9  1  0
  7 10  1  0
  8 11  2  0
  9 12  1  0
  9 13  2  0
 12 14  1  0
 12 15  1  0
 14 16  1  0
 15 17  1  0
 16 18  2  0
 16 19  1  0
 17 20  2  0
 17 21  1  0
 18 22  1  0
 18 23  1  0
 19 24  2  0
 20 25  1  0
 21 26  2  0
 22 27  2  0
 23 28  1  0
 23 29  1  0
 23 30  1  0
 25 31  2  0
 11 13  1  0
 24 27  1  0
 26 31  1  0
  4 32  1  0
  5 33  1  0
  5 34  1  0
  5 35  1  0
  8 36  1  0
 10 37  1  0
 10 38  1  0
 10 39  1  0
 11 40  1  0
 13 41  1  0
 14 42  1  0
 14 43  1  0
 15 44  1  0
 15 45  1  0
 19 46  1  0
 20 47  1  0
 21 48  1  0
 22 49  1  0
 24 50  1  0
 25 51  1  0
 26 52  1  0
 27 53  1  0
 31 54  1  0
M  END
> <Name>
CHEMBL70449

> <IC50 nM>
220

> <Molecule_ChEMBL_ID>
CHEMBL70449

> <Smiles>
Cc1c(NS(C)(=O)=O)cccc1N(Cc1ccccc1)Cc1ccccc1C(F)(F)F

$$$$
CHEMBL1940693
  SciTegic08162514323D

 71 76  0  0  1  0            999 V2000
    4.4140    1.3150   -0.2010 S   0  0
    5.9000    0.6000    0.1860 C   0  0
    3.3090   -0.0410   -0.1350 C   0  0
    6.2720   -0.7030    0.4920 N   0  0
    6.9410    1.6020    0.1760 C   0  0
    1.9160    0.4300   -0.4610 C   0  0
    7.5760   -1.0430    0.7770 C   0  0
    8.2930    1.2070    0.4790 C   0  0
    6.6840    2.9750   -0.1230 C   0  0
    1.6820    1.6040   -0.6330 O   0  0
    0.8220   -0.6070   -0.5640 C   0  0  2  0  0  0
    8.5860   -0.1110    0.7730 N   0  0
    9.3320    2.1700    0.4730 C   0  0
    7.7330    3.9200   -0.1210 C   0  0
    0.9260   -1.2010   -1.8500 O   0  0
   -0.6060   -0.0550   -0.3260 C   0  0  2  0  0  0
    0.8910   -1.6950    0.5330 C   0  0  1  0  0  0
    9.0530    3.5220    0.1760 C   0  0
   -1.4260   -1.3460   -0.1970 C   0  0  1  0  0  0
   -1.2620    0.7740   -1.4450 C   0  0
   -0.5700    0.7230    1.0020 C   0  0
   -0.5450   -2.2270    0.6910 C   0  0
    1.9060   -2.8140    0.3010 C   0  0
   -2.8540   -1.0720    0.3050 C   0  0  1  0  0  0
   -2.7400    1.1090   -1.1210 C   0  0  1  0  0  0
   -3.5960   -0.1270   -0.6780 C   0  0  2  0  0  0
   -3.6250   -2.4000    0.4450 C   0  0
   -2.7750    2.1410   -0.1540 O   0  0
   -5.0350    0.1990   -0.1480 C   0  0  2  0  0  0
   -5.0590   -2.1720    0.9430 C   0  0
   -5.7950   -1.0940    0.1700 C   0  0
   -5.7870    1.1000   -1.1250 C   0  0
   -4.9940    0.9570    1.1860 C   0  0
   -7.0800   -1.2810   -0.1990 C   0  0
   -7.0680    0.8870   -1.4770 C   0  0
   -7.8110   -0.2670   -0.9670 C   0  0
   -8.9960   -0.3830   -1.1760 O   0  0
    3.6210   -0.7990   -0.8540 H   0  0
    3.3280   -0.4780    0.8630 H   0  0
    7.8110   -2.0720    1.0100 H   0  0
    5.6990    3.3480   -0.3570 H   0  0
   10.3520    1.8850    0.6970 H   0  0
    7.5240    4.9550   -0.3500 H   0  0
    1.8280   -1.5490   -1.9320 H   0  0
    1.1580   -1.2230    1.4690 H   0  0
    9.8500    4.2500    0.1740 H   0  0
   -1.4960   -1.8200   -1.1680 H   0  0
   -1.2360    0.2110   -2.3790 H   0  0
   -0.6910    1.6880   -1.6290 H   0  0
   -1.5720    0.9280    1.3770 H   0  0
   -0.0590    1.6760    0.8770 H   0  0
   -0.0390    0.1560    1.7660 H   0  0
   -0.6430   -3.2660    0.4080 H   0  0
   -0.8540   -2.1520    1.7250 H   0  0
    1.8830   -3.5330    1.1210 H   0  0
    1.6970   -3.3360   -0.6330 H   0  0
    2.9160   -2.4120    0.2380 H   0  0
   -2.8030   -0.6000    1.2870 H   0  0
   -3.1760    1.5370   -2.0230 H   0  0
   -3.7310   -0.7010   -1.5980 H   0  0
   -3.6540   -2.9200   -0.5140 H   0  0
   -3.1130   -3.0660    1.1410 H   0  0
   -3.2170    2.9020   -0.5620 H   0  0
   -5.6080   -3.1150    0.9040 H   0  0
   -5.0290   -1.8810    1.9940 H   0  0
   -5.2810    1.9510   -1.5610 H   0  0
   -5.9420    0.8890    1.7210 H   0  0
   -4.7770    2.0120    1.0220 H   0  0
   -4.2150    0.5530    1.8320 H   0  0
   -7.5880   -2.1950    0.0720 H   0  0
   -7.5530    1.5840   -2.1460 H   0  0
  1  2  1  0
  1  3  1  0
  2  4  2  0
  2  5  1  0
  3  6  1  0
  4  7  1  0
  5  8  1  0
  5  9  2  0
  6 10  2  0
  6 11  1  0
  7 12  2  0
  8 13  2  0
  9 14  1  0
 11 15  1  0
 11 16  1  0
 11 17  1  0
 13 18  1  0
 16 19  1  0
 16 20  1  0
 16 21  1  0
 17 22  1  0
 17 23  1  0
 19 24  1  0
 20 25  1  0
 26 24  1  0
 24 27  1  0
 25 28  1  0
 26 29  1  0
 27 30  1  0
 29 31  1  0
 29 32  1  0
 29 33  1  0
 31 34  2  0
 32 35  2  0
 34 36  1  0
 36 37  2  0
  8 12  1  0
 14 18  2  0
 19 22  1  0
 25 26  1  0
 30 31  1  0
 35 36  1  0
  3 38  1  0
  3 39  1  0
  7 40  1  0
  9 41  1  0
 13 42  1  0
 14 43  1  0
 15 44  1  0
 17 45  1  0
 18 46  1  0
 19 47  1  0
 20 48  1  0
 20 49  1  0
 21 50  1  0
 21 51  1  0
 21 52  1  0
 22 53  1  0
 22 54  1  0
 23 55  1  0
 23 56  1  0
 23 57  1  0
 24 58  1  0
 25 59  1  0
 26 60  1  0
 27 61  1  0
 27 62  1  0
 28 63  1  0
 30 64  1  0
 30 65  1  0
 32 66  1  0
 33 67  1  0
 33 68  1  0
 33 69  1  0
 34 70  1  0
 35 71  1  0
M  END
> <Name>
CHEMBL1940693

> <IC50 nM>
23.5

> <Molecule_ChEMBL_ID>
CHEMBL1940693

> <Smiles>
C[C@@H]1C[C@H]2[C@@H]3CCC4=CC(=O)C=C[C@]4(C)[C@H]3[C@@H](O)C[C@]2(C)[C@@]1(O)C(=O)CSc1ncnc2ccccc12

$$$$
CHEMBL1668078
  SciTegic08162514323D

 72 76  0  0  1  0            999 V2000
   -0.9530   -5.0800    0.8160 S   0  0
   -1.9710   -6.1170    0.8360 O   0  0
   -0.0920   -5.1490   -0.3500 O   0  0
   -1.8110   -3.5700    0.6910 N   0  0
    0.0270   -5.2520    2.2290 C   0  0
   -2.5610   -3.3110   -0.5250 C   0  0  2  0  0  0
    0.1890   -6.5180    2.8220 C   0  0
    0.6620   -4.1250    2.7850 C   0  0
   -2.9280   -1.8300   -0.6230 C   0  0
   -3.7810   -4.2270   -0.6070 C   0  0
    0.9880   -6.6540    3.9730 C   0  0
   -0.4790   -7.7110    2.2400 C   0  0
    1.4590   -4.2660    3.9340 C   0  0
    0.4940   -2.7850    2.1620 C   0  0
   -1.7230   -0.9960   -0.7500 N   0  0
    1.6230   -5.5290    4.5270 C   0  0
   -1.8360    0.3460   -0.8200 C   0  0
    2.4650   -5.6780    5.7420 C   0  0
   -0.6050    1.0740   -0.9280 C   0  0
   -3.0800    1.0270   -0.7910 C   0  0
   -0.6820    2.4570   -1.0020 C   0  0
    0.6720    0.5140   -0.9670 C   0  0
   -3.1090    2.4450   -0.8690 C   0  0
    0.6210    2.8280   -1.0920 N   0  0
   -1.9000    3.1780   -0.9750 C   0  0
    1.3870    1.6850   -1.0700 N   0  0
   -4.3990    3.1540   -0.8400 C   0  0
    1.1050    4.0940   -1.1890 C   0  0
    2.1410    4.3870   -2.1000 C   0  0
    0.5740    5.1150   -0.3790 C   0  0
    2.6410    5.7010   -2.1990 C   0  0
    1.0740    6.4240   -0.4780 C   0  0
    3.6470    5.9880   -3.0840 N   0  0
    2.1060    6.7170   -1.3870 C   0  0
    4.0720    7.3440   -3.2680 C   0  0
    4.5780    7.7130   -4.6470 C   0  0
    3.2230    8.2030   -4.1800 C   0  0
   -2.4490   -3.4710    1.4920 H   0  0
   -1.8280   -3.5760   -1.2870 H   0  0
   -3.4920   -1.5140    0.2540 H   0  0
   -3.5800   -1.6490   -1.4790 H   0  0
   -3.4770   -5.2680   -0.7110 H   0  0
   -4.4000   -4.1250    0.2830 H   0  0
   -4.3970   -3.9750   -1.4710 H   0  0
    1.1130   -7.6270    4.4280 H   0  0
   -0.3810   -7.7970    1.1580 H   0  0
   -1.5430   -7.6840    2.4770 H   0  0
   -0.0630   -8.6130    2.6860 H   0  0
    1.9470   -3.4020    4.3610 H   0  0
    0.5590   -2.7830    1.0740 H   0  0
    1.2620   -2.1090    2.5430 H   0  0
   -0.4770   -2.3750    2.4400 H   0  0
   -0.8200   -1.4240   -0.7850 H   0  0
    2.9120   -4.7480    6.0940 H   0  0
    3.2730   -6.3810    5.5410 H   0  0
    1.8650   -6.0860    6.5550 H   0  0
   -4.0060    0.4750   -0.7090 H   0  0
    1.0490   -0.5000   -0.9300 H   0  0
   -1.9100    4.2560   -1.0350 H   0  0
   -5.2680    2.5040   -0.7560 H   0  0
   -4.5080    3.7440   -1.7500 H   0  0
   -4.4140    3.8440    0.0060 H   0  0
    2.5510    3.6030   -2.7250 H   0  0
   -0.2190    4.9080    0.3260 H   0  0
    0.6660    7.2050    0.1450 H   0  0
    3.7250    5.0180   -3.3090 H   0  0
    2.4790    7.7310   -1.4470 H   0  0
    4.5410    7.8110   -2.4000 H   0  0
    5.3870    8.4410   -4.7070 H   0  0
    4.5960    6.9490   -5.4260 H   0  0
    3.1270    9.2600   -3.9280 H   0  0
    2.3400    7.7660   -4.6480 H   0  0
  1  2  2  0
  1  3  2  0
  1  4  1  0
  1  5  1  0
  4  6  1  0
  5  7  2  0
  5  8  1  0
  6  9  1  0
  6 10  1  0
  7 11  1  0
  7 12  1  0
  8 13  2  0
  8 14  1  0
  9 15  1  0
 11 16  2  0
 15 17  1  0
 16 18  1  0
 17 19  2  0
 17 20  1  0
 19 21  1  0
 19 22  1  0
 20 23  2  0
 21 24  1  0
 21 25  2  0
 22 26  2  0
 23 27  1  0
 24 28  1  0
 28 29  2  0
 28 30  1  0
 29 31  1  0
 30 32  2  0
 31 33  1  0
 31 34  2  0
 33 35  1  0
 35 36  1  0
 35 37  1  0
 13 16  1  0
 23 25  1  0
 24 26  1  0
 32 34  1  0
 36 37  1  0
  4 38  1  0
  6 39  1  0
  9 40  1  0
  9 41  1  0
 10 42  1  0
 10 43  1  0
 10 44  1  0
 11 45  1  0
 12 46  1  0
 12 47  1  0
 12 48  1  0
 13 49  1  0
 14 50  1  0
 14 51  1  0
 14 52  1  0
 15 53  1  0
 18 54  1  0
 18 55  1  0
 18 56  1  0
 20 57  1  0
 22 58  1  0
 25 59  1  0
 27 60  1  0
 27 61  1  0
 27 62  1  0
 29 63  1  0
 30 64  1  0
 32 65  1  0
 33 66  1  0
 34 67  1  0
 35 68  1  0
 36 69  1  0
 36 70  1  0
 37 71  1  0
 37 72  1  0
M  END
> <Name>
CHEMBL1668078

> <IC50 nM>
7.94

> <Molecule_ChEMBL_ID>
CHEMBL1668078

> <Smiles>
Cc1cc(C)c(S(=O)(=O)N[C@@H](C)CNc2cc(C)cc3c2cnn3-c2cccc(NC3CC3)c2)c(C)c1

$$$$
CHEMBL1668088
  SciTegic08162514323D

 65 68  0  0  1  0            999 V2000
   -1.6480   -5.8130   -0.6190 S   0  0
   -0.9020   -5.9320    0.6210 O   0  0
   -1.6150   -7.0220   -1.4260 O   0  0
   -3.3110   -5.5880   -0.1600 N   0  0
   -0.9670   -4.4630   -1.5760 C   0  0
   -3.6800   -4.3360    0.4790 C   0  0  2  0  0  0
    0.1540   -4.8890   -2.4960 C   0  0
   -1.2230   -4.5940   -3.0610 C   0  0
   -2.9570   -4.1880    1.8180 C   0  0
   -5.1970   -4.2290    0.6110 C   0  0
   -1.7540   -3.3540    1.6800 N   0  0
   -1.8670   -2.0140    1.6090 C   0  0
   -0.6350   -1.2850    1.5020 C   0  0
   -3.1110   -1.3300    1.6390 C   0  0
   -0.7130    0.1000    1.4280 C   0  0
    0.6430   -1.8460    1.4630 C   0  0
   -3.1410    0.0860    1.5610 C   0  0
    0.5900    0.4690    1.3380 N   0  0
   -1.9320    0.8180    1.4530 C   0  0
    1.3560   -0.6720    1.3590 N   0  0
   -4.4280    0.7970    1.5900 C   0  0
    1.0760    1.7340    1.2400 C   0  0
    2.0860    2.0350    0.3070 C   0  0
    0.5660    2.7500    2.0740 C   0  0
    2.5860    3.3480    0.2070 C   0  0
    1.0680    4.0590    1.9730 C   0  0
    3.6580    3.6660   -0.7810 C   0  0
    2.0760    4.3580    1.0430 C   0  0
    4.4220    2.8130   -1.1680 O   0  0
    3.7640    4.9470   -1.2460 N   0  0
    4.8130    5.2770   -2.2210 C   0  0  2  0  0  0
    6.1520    5.4530   -1.5570 C   0  0
    4.4160    6.4880   -3.0640 C   0  0
    7.0490    4.6660   -1.7420 O   0  0
    6.3380    6.5280   -0.7320 N   0  0
   -3.9160   -5.7190   -0.9840 H   0  0
   -0.9670   -3.4980   -1.0680 H   0  0
   -3.3030   -3.6110   -0.2440 H   0  0
    0.4750   -5.9300   -2.4690 H   0  0
    0.9490   -4.1700   -2.6930 H   0  0
   -1.3500   -3.6760   -3.6350 H   0  0
   -1.8180   -5.4380   -3.4060 H   0  0
   -2.6740   -5.1620    2.2150 H   0  0
   -3.6170   -3.7420    2.5640 H   0  0
   -5.4800   -3.2640    1.0330 H   0  0
   -5.6800   -4.3480   -0.3590 H   0  0
   -5.5820   -5.0060    1.2730 H   0  0
   -0.8520   -3.7830    1.6370 H   0  0
   -4.0370   -1.8830    1.7210 H   0  0
    1.0200   -2.8590    1.5000 H   0  0
   -1.9390    1.8990    1.3950 H   0  0
   -5.2970    0.1450    1.6800 H   0  0
   -4.5410    1.3810    0.6760 H   0  0
   -4.4410    1.4880    2.4320 H   0  0
    2.4840    1.2660   -0.3400 H   0  0
   -0.2090    2.5390    2.7970 H   0  0
    0.6780    4.8360    2.6130 H   0  0
    2.4550    5.3670    0.9730 H   0  0
    3.1270    5.6470   -0.9220 H   0  0
    4.9980    4.4100   -2.8560 H   0  0
    3.5180    6.2990   -3.6500 H   0  0
    5.2150    6.7560   -3.7560 H   0  0
    4.2230    7.3540   -2.4300 H   0  0
    5.6100    7.1920   -0.5610 H   0  0
    7.2170    6.6680   -0.2790 H   0  0
  1  2  2  0
  1  3  2  0
  1  4  1  0
  1  5  1  0
  4  6  1  0
  5  7  1  0
  5  8  1  0
  6  9  1  0
  6 10  1  0
  9 11  1  0
 11 12  1  0
 12 13  2  0
 12 14  1  0
 13 15  1  0
 13 16  1  0
 14 17  2  0
 15 18  1  0
 15 19  2  0
 16 20  2  0
 17 21  1  0
 18 22  1  0
 22 23  2  0
 22 24  1  0
 23 25  1  0
 24 26  2  0
 25 27  1  0
 25 28  2  0
 27 29  2  0
 27 30  1  0
 30 31  1  0
 31 32  1  0
 31 33  1  0
 32 34  2  0
 32 35  1  0
  7  8  1  0
 17 19  1  0
 18 20  1  0
 26 28  1  0
  4 36  1  0
  5 37  1  0
  6 38  1  0
  7 39  1  0
  7 40  1  0
  8 41  1  0
  8 42  1  0
  9 43  1  0
  9 44  1  0
 10 45  1  0
 10 46  1  0
 10 47  1  0
 11 48  1  0
 14 49  1  0
 16 50  1  0
 19 51  1  0
 21 52  1  0
 21 53  1  0
 21 54  1  0
 23 55  1  0
 24 56  1  0
 26 57  1  0
 28 58  1  0
 30 59  1  0
 31 60  1  0
 33 61  1  0
 33 62  1  0
 33 63  1  0
 35 64  1  0
 35 65  1  0
M  END
> <Name>
CHEMBL1668088

> <IC50 nM>
39.81

> <Molecule_ChEMBL_ID>
CHEMBL1668088

> <Smiles>
Cc1cc(NC[C@H](C)NS(=O)(=O)C2CC2)c2cnn(-c3cccc(C(=O)N[C@@H](C)C(N)=O)c3)c2c1

$$$$
CHEMBL1668089
  SciTegic08162514323D

 65 68  0  0  1  0            999 V2000
   -1.5240   -5.5940   -0.5590 S   0  0
   -0.8030   -5.7810    0.6870 O   0  0
   -1.4590   -6.7500   -1.4380 O   0  0
   -3.1970   -5.4140   -0.1250 N   0  0
   -0.8360   -4.1800   -1.4140 C   0  0
   -3.5980   -4.1930    0.5550 C   0  0  2  0  0  0
    0.3030   -4.5390   -2.3440 C   0  0
   -1.0670   -4.2150   -2.9080 C   0  0
   -2.9260   -4.0980    1.9260 C   0  0
   -5.1230   -4.1040    0.6390 C   0  0
   -1.7190   -3.2620    1.8610 N   0  0
   -1.8320   -1.9200    1.7930 C   0  0
   -0.6000   -1.1910    1.6840 C   0  0
   -3.0760   -1.2360    1.8220 C   0  0
   -0.6780    0.1930    1.6110 C   0  0
    0.6780   -1.7520    1.6460 C   0  0
   -3.1060    0.1800    1.7420 C   0  0
    0.6250    0.5630    1.5200 N   0  0
   -1.8970    0.9120    1.6370 C   0  0
    1.3900   -0.5780    1.5410 N   0  0
   -4.3930    0.8910    1.7710 C   0  0
    1.1090    1.8280    1.4220 C   0  0
    2.1390    2.1250    0.5060 C   0  0
    0.5860    2.8480    2.2380 C   0  0
    2.6390    3.4360    0.4060 C   0  0
    1.0860    4.1580    2.1390 C   0  0
    3.7280    3.7500   -0.5640 C   0  0
    2.1110    4.4510    1.2250 C   0  0
    4.5000    2.8950   -0.9320 O   0  0
    3.8400    5.0260   -1.0370 N   0  0
    4.9060    5.3520   -1.9940 C   0  0  1  0  0  0
    4.5570    4.9020   -3.3890 C   0  0
    5.2640    6.8360   -1.9340 C   0  0
    3.8440    5.5700   -4.0980 O   0  0
    5.0620    3.7170   -3.8400 N   0  0
   -3.7830   -5.5220   -0.9650 H   0  0
   -0.8500   -3.2500   -0.8460 H   0  0
   -3.2050   -3.4360   -0.1210 H   0  0
    0.6310   -5.5780   -2.3770 H   0  0
    1.0960   -3.8030   -2.4810 H   0  0
   -1.1920   -3.2640   -3.4240 H   0  0
   -1.6530   -5.0390   -3.3180 H   0  0
   -2.6560   -5.0880    2.2910 H   0  0
   -3.6120   -3.6840    2.6620 H   0  0
   -5.4280   -3.1640    1.1000 H   0  0
   -5.5690   -4.1740   -0.3540 H   0  0
   -5.5240   -4.9160    1.2420 H   0  0
   -0.8150   -3.6870    1.8710 H   0  0
   -4.0020   -1.7910    1.9020 H   0  0
    1.0530   -2.7660    1.6820 H   0  0
   -1.9050    1.9900    1.5760 H   0  0
   -5.2620    0.2380    1.8650 H   0  0
   -4.5080    1.4710    0.8570 H   0  0
   -4.4060    1.5840    2.6110 H   0  0
    2.5490    1.3500   -0.1270 H   0  0
   -0.2030    2.6410    2.9490 H   0  0
    0.6830    4.9400    2.7660 H   0  0
    2.4900    5.4610    1.1540 H   0  0
    3.1970    5.7290   -0.7310 H   0  0
    5.7790    4.7360   -1.7790 H   0  0
    5.5900    7.1350   -0.9380 H   0  0
    4.4040    7.4510   -2.2010 H   0  0
    6.0680    7.0690   -2.6310 H   0  0
    5.6560    3.1450   -3.2720 H   0  0
    4.8460    3.3950   -4.7620 H   0  0
  1  2  2  0
  1  3  2  0
  1  4  1  0
  1  5  1  0
  4  6  1  0
  5  7  1  0
  5  8  1  0
  6  9  1  0
  6 10  1  0
  9 11  1  0
 11 12  1  0
 12 13  2  0
 12 14  1  0
 13 15  1  0
 13 16  1  0
 14 17  2  0
 15 18  1  0
 15 19  2  0
 16 20  2  0
 17 21  1  0
 18 22  1  0
 22 23  2  0
 22 24  1  0
 23 25  1  0
 24 26  2  0
 25 27  1  0
 25 28  2  0
 27 29  2  0
 27 30  1  0
 30 31  1  0
 31 32  1  0
 31 33  1  0
 32 34  2  0
 32 35  1  0
  7  8  1  0
 17 19  1  0
 18 20  1  0
 26 28  1  0
  4 36  1  0
  5 37  1  0
  6 38  1  0
  7 39  1  0
  7 40  1  0
  8 41  1  0
  8 42  1  0
  9 43  1  0
  9 44  1  0
 10 45  1  0
 10 46  1  0
 10 47  1  0
 11 48  1  0
 14 49  1  0
 16 50  1  0
 19 51  1  0
 21 52  1  0
 21 53  1  0
 21 54  1  0
 23 55  1  0
 24 56  1  0
 26 57  1  0
 28 58  1  0
 30 59  1  0
 31 60  1  0
 33 61  1  0
 33 62  1  0
 33 63  1  0
 35 64  1  0
 35 65  1  0
M  END
> <Name>
CHEMBL1668089

> <IC50 nM>
31.62

> <Molecule_ChEMBL_ID>
CHEMBL1668089

> <Smiles>
Cc1cc(NC[C@H](C)NS(=O)(=O)C2CC2)c2cnn(-c3cccc(C(=O)N[C@H](C)C(N)=O)c3)c2c1

$$$$
CHEMBL1940694
  SciTegic08162514323D

 69 73  0  0  1  0            999 V2000
    4.9770    1.1600    0.2600 S   0  0
    6.2720    0.5590   -0.6410 C   0  0
    3.5880    0.5020   -0.5800 C   0  0
    5.9530   -0.2050   -1.7310 N   0  0
    7.6210    0.8090   -0.3180 C   0  0
    2.3280    0.9400    0.1150 C   0  0
    6.9380   -0.7340   -2.5160 C   0  0
    8.6450    0.2740   -1.1170 C   0  0
    2.3710    1.6450    1.0960 O   0  0
    1.0060    0.4690   -0.4450 C   0  0  2  0  0  0
    8.2970   -0.5080   -2.2310 C   0  0
    6.5590   -1.5590   -3.6920 C   0  0
    0.6880    1.3360   -1.5240 O   0  0
   -0.1500    0.4320    0.5820 C   0  0  2  0  0  0
    1.0330   -1.0000   -0.9360 C   0  0  1  0  0  0
   -1.2070   -0.3730   -0.2010 C   0  0  1  0  0  0
   -0.7640    1.7790    1.0250 C   0  0
    0.3480   -0.3550    1.8070 C   0  0
   -0.3950   -1.5450   -0.7520 C   0  0
    1.5470   -1.2150   -2.3610 C   0  0
   -2.4260   -0.6890    0.6840 C   0  0  1  0  0  0
   -2.1020    1.6100    1.7850 C   0  0  1  0  0  0
   -3.0820    0.6840    1.0180 C   0  0  2  0  0  0
   -3.4180   -1.7050    0.0700 C   0  0
   -1.8670    1.1150    3.0900 O   0  0
   -4.5080    0.4880    1.6090 C   0  0  2  0  0  0
   -4.7070   -1.0760   -0.4810 C   0  0
   -5.3590   -0.0960    0.4760 C   0  0
   -5.1150    1.7660    2.1840 C   0  0
   -4.4960   -0.5160    2.7690 C   0  0
   -6.6490    0.2560    0.2970 C   0  0
   -6.3970    2.1190    1.9670 C   0  0
   -7.2660    1.3150    1.1030 C   0  0
   -8.4550    1.5260    1.0450 O   0  0
    3.5840    0.8580   -1.6110 H   0  0
    3.6500   -0.5860   -0.5880 H   0  0
    7.8670    1.4120    0.5410 H   0  0
    9.6820    0.4590   -0.8790 H   0  0
    9.0690   -0.9320   -2.8580 H   0  0
    5.8200   -2.3320   -3.4790 H   0  0
    7.4470   -2.0470   -4.0940 H   0  0
    6.1510   -0.9160   -4.4710 H   0  0
    1.4380    1.3180   -2.1370 H   0  0
    1.6760   -1.5720   -0.2810 H   0  0
   -1.5570    0.1990   -1.0490 H   0  0
   -0.9630    2.3930    0.1460 H   0  0
   -0.0470    2.3460    1.6210 H   0  0
   -0.4690   -0.6210    2.4780 H   0  0
    1.0680    0.2330    2.3730 H   0  0
    0.8380   -1.2770    1.4960 H   0  0
   -0.3930   -2.3670   -0.0510 H   0  0
   -0.8240   -1.9140   -1.6740 H   0  0
    1.6060   -2.2790   -2.5940 H   0  0
    0.8930   -0.7280   -3.0840 H   0  0
    2.5450   -0.7930   -2.4790 H   0  0
   -2.0700   -1.1460    1.6050 H   0  0
   -2.5370    2.6020    1.9060 H   0  0
   -3.2340    1.2050    0.0680 H   0  0
   -3.7070   -2.4160    0.8460 H   0  0
   -2.9430   -2.3090   -0.7030 H   0  0
   -2.5080    1.5410    3.6780 H   0  0
   -4.4750   -0.5490   -1.4060 H   0  0
   -5.4120   -1.8650   -0.7440 H   0  0
   -4.5120    2.4180    2.7950 H   0  0
   -5.5040   -0.8100    3.0620 H   0  0
   -4.0060   -0.0880    3.6450 H   0  0
   -3.9510   -1.4180    2.4920 H   0  0
   -7.2400   -0.2360   -0.4630 H   0  0
   -6.7890    3.0100    2.4350 H   0  0
  1  2  1  0
  1  3  1  0
  2  4  2  0
  2  5  1  0
  3  6  1  0
  4  7  1  0
  5  8  2  0
  6  9  2  0
  6 10  1  0
  7 11  2  0
  7 12  1  0
 10 13  1  0
 10 14  1  0
 10 15  1  0
 14 16  1  0
 14 17  1  0
 14 18  1  0
 15 19  1  0
 15 20  1  0
 16 21  1  0
 17 22  1  0
 23 21  1  0
 21 24  1  0
 22 25  1  0
 23 26  1  0
 24 27  1  0
 26 28  1  0
 26 29  1  0
 26 30  1  0
 28 31  2  0
 29 32  2  0
 31 33  1  0
 33 34  2  0
  8 11  1  0
 16 19  1  0
 22 23  1  0
 27 28  1  0
 32 33  1  0
  3 35  1  0
  3 36  1  0
  5 37  1  0
  8 38  1  0
 11 39  1  0
 12 40  1  0
 12 41  1  0
 12 42  1  0
 13 43  1  0
 15 44  1  0
 16 45  1  0
 17 46  1  0
 17 47  1  0
 18 48  1  0
 18 49  1  0
 18 50  1  0
 19 51  1  0
 19 52  1  0
 20 53  1  0
 20 54  1  0
 20 55  1  0
 21 56  1  0
 22 57  1  0
 23 58  1  0
 24 59  1  0
 24 60  1  0
 25 61  1  0
 27 62  1  0
 27 63  1  0
 29 64  1  0
 30 65  1  0
 30 66  1  0
 30 67  1  0
 31 68  1  0
 32 69  1  0
M  END
> <Name>
CHEMBL1940694

> <IC50 nM>
1.69

> <Molecule_ChEMBL_ID>
CHEMBL1940694

> <Smiles>
Cc1cccc(SCC(=O)[C@@]2(O)[C@H](C)C[C@H]3[C@@H]4CCC5=CC(=O)C=C[C@]5(C)[C@H]4[C@@H](O)C[C@@]32C)n1

$$$$
CHEMBL1668090
  SciTegic08162514323D

 68 71  0  0  1  0            999 V2000
   -1.2520   -6.8650    2.3130 S   0  0
   -2.2500   -7.9220    2.2930 O   0  0
   -0.3690   -6.8910    1.1600 O   0  0
   -2.1350   -5.3690    2.2090 N   0  0
   -0.2680   -7.0290    3.7990 C   0  0
   -2.8810   -5.1020    0.9900 C   0  0  2  0  0  0
    0.9610   -7.8910    3.6090 C   0  0
    1.0940   -6.3810    3.6880 C   0  0
   -3.2460   -3.6190    0.9020 C   0  0
   -4.1020   -6.0180    0.8970 C   0  0
   -2.0410   -2.7850    0.7810 N   0  0
   -2.1540   -1.4450    0.7110 C   0  0
   -0.9240   -0.7150    0.6020 C   0  0
   -3.3990   -0.7620    0.7400 C   0  0
   -1.0000    0.6680    0.5290 C   0  0
    0.3530   -1.2750    0.5640 C   0  0
   -3.4280    0.6540    0.6620 C   0  0
    0.3030    1.0370    0.4380 N   0  0
   -2.2190    1.3870    0.5550 C   0  0
    1.0680   -0.1030    0.4590 N   0  0
   -4.7170    1.3650    0.6890 C   0  0
    0.7870    2.3030    0.3400 C   0  0
    1.8160    2.6000   -0.5740 C   0  0
    0.2620    3.3240    1.1560 C   0  0
    2.3160    3.9100   -0.6740 C   0  0
    0.7620    4.6330    1.0570 C   0  0
    3.4080    4.2230   -1.6450 C   0  0
    1.7890    4.9280    0.1430 C   0  0
    4.4730    3.6540   -1.5880 O   0  0
    3.1820    5.1700   -2.6020 N   0  0
    4.2280    5.5670   -3.5570 C   0  0  1  0  0  0
    1.8630    5.8130   -2.6860 C   0  0
    3.8690    5.1760   -4.9650 C   0  0
    4.5550    7.0550   -3.4280 C   0  0
    3.6430    6.0160   -5.8050 O   0  0
    3.8050    3.8500   -5.2810 N   0  0
   -2.7830   -5.2970    3.0060 H   0  0
   -0.8400   -7.0270    4.7270 H   0  0
   -2.1450   -5.3610    0.2310 H   0  0
    1.1150   -8.3610    2.6370 H   0  0
    1.3050   -8.4750    4.4610 H   0  0
    1.5250   -5.9570    4.5940 H   0  0
    1.3340   -5.8460    2.7680 H   0  0
   -3.8090   -3.3090    1.7830 H   0  0
   -3.8990   -3.4340    0.0490 H   0  0
   -3.7950   -7.0590    0.7930 H   0  0
   -4.7270   -5.9180    1.7850 H   0  0
   -4.7090   -5.7620    0.0290 H   0  0
   -1.1390   -3.2130    0.7480 H   0  0
   -4.3240   -1.3140    0.8220 H   0  0
    0.7300   -2.2910    0.6000 H   0  0
   -2.2290    2.4670    0.4940 H   0  0
   -5.5860    0.7130    0.7730 H   0  0
   -4.8260    1.9530   -0.2210 H   0  0
   -4.7330    2.0530    1.5350 H   0  0
    2.2280    1.8240   -1.2070 H   0  0
   -0.5290    3.1170    1.8650 H   0  0
    0.3570    5.4140    1.6820 H   0  0
    2.1680    5.9380    0.0720 H   0  0
    5.1190    4.9610   -3.3830 H   0  0
    1.0190    5.1500   -2.4900 H   0  0
    1.7320    6.2340   -3.6820 H   0  0
    1.8160    6.6330   -1.9690 H   0  0
    4.8650    7.3170   -2.4160 H   0  0
    3.6840    7.6620   -3.6760 H   0  0
    5.3590    7.3320   -4.1060 H   0  0
    3.5720    3.5390   -6.2030 H   0  0
    3.9900    3.1560   -4.5860 H   0  0
  1  2  2  0
  1  3  2  0
  1  4  1  0
  1  5  1  0
  4  6  1  0
  5  7  1  0
  5  8  1  0
  6  9  1  0
  6 10  1  0
  9 11  1  0
 11 12  1  0
 12 13  2  0
 12 14  1  0
 13 15  1  0
 13 16  1  0
 14 17  2  0
 15 18  1  0
 15 19  2  0
 16 20  2  0
 17 21  1  0
 18 22  1  0
 22 23  2  0
 22 24  1  0
 23 25  1  0
 24 26  2  0
 25 27  1  0
 25 28  2  0
 27 29  2  0
 27 30  1  0
 30 31  1  0
 30 32  1  0
 31 33  1  0
 31 34  1  0
 33 35  2  0
 33 36  1  0
  7  8  1  0
 17 19  1  0
 18 20  1  0
 26 28  1  0
  4 37  1  0
  5 38  1  0
  6 39  1  0
  7 40  1  0
  7 41  1  0
  8 42  1  0
  8 43  1  0
  9 44  1  0
  9 45  1  0
 10 46  1  0
 10 47  1  0
 10 48  1  0
 11 49  1  0
 14 50  1  0
 16 51  1  0
 19 52  1  0
 21 53  1  0
 21 54  1  0
 21 55  1  0
 23 56  1  0
 24 57  1  0
 26 58  1  0
 28 59  1  0
 31 60  1  0
 32 61  1  0
 32 62  1  0
 32 63  1  0
 34 64  1  0
 34 65  1  0
 34 66  1  0
 36 67  1  0
 36 68  1  0
M  END
> <Name>
CHEMBL1668090

> <IC50 nM>
31.62

> <Molecule_ChEMBL_ID>
CHEMBL1668090

> <Smiles>
Cc1cc(NC[C@H](C)NS(=O)(=O)C2CC2)c2cnn(-c3cccc(C(=O)N(C)[C@H](C)C(N)=O)c3)c2c1

$$$$
CHEMBL1668072
  SciTegic08162514323D

 74 77  0  0  1  0            999 V2000
   -0.1050   -2.6700   -1.8220 S   0  0
   -0.5450   -1.3940   -2.3610 O   0  0
    0.7400   -2.5350   -0.6500 O   0  0
   -1.5450   -3.4840   -1.2830 N   0  0
    0.7890   -3.4980   -3.0470 C   0  0
   -2.2310   -2.9570   -0.1150 C   0  0  2  0  0  0
    0.6760   -4.8950   -3.1780 C   0  0
    1.6310   -2.7730   -3.9140 C   0  0
   -1.6070   -3.5100    1.1680 C   0  0
   -3.7320   -3.2300   -0.2070 C   0  0
    1.4040   -5.5660   -4.1760 C   0  0
   -0.2110   -5.6640   -2.2680 C   0  0
    2.3570   -3.4490   -4.9100 C   0  0
    1.7560   -1.2990   -3.7810 C   0  0
   -2.0570   -2.7480    2.3420 N   0  0
    2.2460   -4.8440   -5.0410 C   0  0
   -2.1700   -1.4060    2.2710 C   0  0
    3.0160   -5.5570   -6.0960 C   0  0
   -0.9380   -0.6780    2.1640 C   0  0
   -3.4140   -0.7250    2.3010 C   0  0
   -1.0160    0.7050    2.0900 C   0  0
    0.3400   -1.2380    2.1250 C   0  0
   -3.4430    0.6930    2.2230 C   0  0
    0.2870    1.0740    1.9980 N   0  0
   -2.2340    1.4240    2.1150 C   0  0
    1.0530   -0.0660    2.0210 N   0  0
   -4.7310    1.4020    2.2520 C   0  0
    0.7710    2.3420    1.9020 C   0  0
    0.6430    3.0570    0.6950 C   0  0
    1.4060    2.9420    3.0080 C   0  0
    1.1450    4.3650    0.5960 C   0  0
    1.9060    4.2520    2.9060 C   0  0
    1.7770    4.9670    1.7010 C   0  0
    2.2660    6.2420    1.6040 N   0  0
    2.0060    7.2130    2.6760 C   0  0
    3.2720    7.9960    3.0250 C   0  0
    0.8280    8.1210    2.3180 C   0  0
   -2.2230   -3.5370   -2.0570 H   0  0
   -2.0250   -1.8910   -0.2150 H   0  0
   -1.8690   -4.5610    1.3010 H   0  0
   -0.5200   -3.4770    1.1130 H   0  0
   -4.1520   -2.8830   -1.1520 H   0  0
   -4.2660   -2.7260    0.6000 H   0  0
   -3.9360   -4.2970   -0.1250 H   0  0
    1.3180   -6.6390   -4.2770 H   0  0
   -1.2600   -5.6720   -2.5630 H   0  0
   -0.1500   -5.2480   -1.2620 H   0  0
    0.1290   -6.6990   -2.2190 H   0  0
    3.0040   -2.8940   -5.5740 H   0  0
    2.6560   -0.8830   -4.2310 H   0  0
    1.7540   -1.0270   -2.7250 H   0  0
    0.8960   -0.8180   -4.2500 H   0  0
   -2.2810   -3.2130    3.1970 H   0  0
    3.6370   -4.9060   -6.7130 H   0  0
    2.3260   -6.0840   -6.7540 H   0  0
    3.6660   -6.2970   -5.6310 H   0  0
   -4.3400   -1.2770    2.3830 H   0  0
    0.7150   -2.2540    2.1620 H   0  0
   -2.2420    2.5040    2.0570 H   0  0
   -5.6020    0.7520    2.3360 H   0  0
   -4.8420    1.9920    1.3420 H   0  0
   -4.7480    2.0900    3.0980 H   0  0
    0.1600    2.6130   -0.1640 H   0  0
    1.5140    2.4080    3.9410 H   0  0
    1.0350    4.9010   -0.3380 H   0  0
    2.3890    4.6950    3.7660 H   0  0
    2.8010    6.5140    0.8030 H   0  0
    1.7360    6.5350    3.4860 H   0  0
    4.0960    7.3360    3.2910 H   0  0
    3.0920    8.6620    3.8690 H   0  0
    3.5900    8.6080    2.1820 H   0  0
   -0.0550    7.5310    2.0760 H   0  0
    0.5940    8.7910    3.1470 H   0  0
    1.0660    8.7370    1.4490 H   0  0
  1  2  2  0
  1  3  2  0
  1  4  1  0
  1  5  1  0
  4  6  1  0
  5  7  2  0
  5  8  1  0
  6  9  1  0
  6 10  1  0
  7 11  1  0
  7 12  1  0
  8 13  2  0
  8 14  1  0
  9 15  1  0
 11 16  2  0
 15 17  1  0
 16 18  1  0
 17 19  2  0
 17 20  1  0
 19 21  1  0
 19 22  1  0
 20 23  2  0
 21 24  1  0
 21 25  2  0
 22 26  2  0
 23 27  1  0
 24 28  1  0
 28 29  2  0
 28 30  1  0
 29 31  1  0
 30 32  2  0
 31 33  2  0
 33 34  1  0
 34 35  1  0
 35 36  1  0
 35 37  1  0
 13 16  1  0
 23 25  1  0
 24 26  1  0
 32 33  1  0
  4 38  1  0
  6 39  1  0
  9 40  1  0
  9 41  1  0
 10 42  1  0
 10 43  1  0
 10 44  1  0
 11 45  1  0
 12 46  1  0
 12 47  1  0
 12 48  1  0
 13 49  1  0
 14 50  1  0
 14 51  1  0
 14 52  1  0
 15 53  1  0
 18 54  1  0
 18 55  1  0
 18 56  1  0
 20 57  1  0
 22 58  1  0
 25 59  1  0
 27 60  1  0
 27 61  1  0
 27 62  1  0
 29 63  1  0
 30 64  1  0
 31 65  1  0
 32 66  1  0
 34 67  1  0
 35 68  1  0
 36 69  1  0
 36 70  1  0
 36 71  1  0
 37 72  1  0
 37 73  1  0
 37 74  1  0
M  END
> <Name>
CHEMBL1668072

> <IC50 nM>
12.59

> <Molecule_ChEMBL_ID>
CHEMBL1668072

> <Smiles>
Cc1cc(C)c(S(=O)(=O)N[C@@H](C)CNc2cc(C)cc3c2cnn3-c2ccc(NC(C)C)cc2)c(C)c1

$$$$
CHEMBL235800
  SciTegic08162514323D

 55 58  0  0  1  0            999 V2000
    3.5700    1.2090    1.7360 F   0  0
    2.6310    2.1890    1.5430 C   0  0
    1.9470    2.4040    2.7110 F   0  0
    3.2540    3.3480    1.1580 F   0  0
    1.6540    1.7500    0.4530 C   0  0  3  0  0  0
    2.3830    1.5410   -0.7360 O   0  0
    0.5720    2.7970    0.1740 C   0  0
    1.0740    0.4080    0.9000 C   0  0
   -0.7970    2.2910    0.5760 C   0  0
    0.6990   -0.5000   -0.2810 C   0  0  3  0  0  0
   -1.8110    1.9630   -0.3590 N   0  0
   -1.2970    2.0610    1.8690 C   0  0
    1.7660   -1.5290   -0.5100 C   0  0
   -0.6820   -1.1210    0.0230 C   0  0
    0.5900    0.3670   -1.5430 C   0  0
   -2.9100    1.5390    0.3690 C   0  0
   -2.5610    1.6150    1.6930 C   0  0
    1.4530   -2.9120   -0.7070 C   0  0
    3.1270   -1.1230   -0.5510 C   0  0
   -0.9900   -2.3050   -0.8950 C   0  0
   -0.5450   -0.0780   -2.4670 C   0  0
   -4.1910    1.0960   -0.0350 C   0  0
   -3.4670    1.2500    2.7170 C   0  0
    2.4980   -3.8460   -0.9280 C   0  0
    0.0530   -3.4100   -0.6820 C   0  0
    4.1600   -2.0610   -0.7700 C   0  0
   -5.1210    0.7230    0.9710 C   0  0
   -4.7620    0.8010    2.3420 C   0  0
    3.8440   -3.4220   -0.9570 C   0  0
    2.6510    2.4140   -1.0640 H   0  0
    0.5650    3.0680   -0.8810 H   0  0
    0.7890    3.7230    0.7050 H   0  0
    1.7600   -0.1020    1.5760 H   0  0
    0.2170    0.5590    1.5570 H   0  0
   -1.7440    2.0230   -1.3500 H   0  0
   -0.7750    2.2130    2.8070 H   0  0
   -1.4650   -0.3670   -0.0660 H   0  0
   -0.7230   -1.4670    1.0590 H   0  0
    0.4810    1.4200   -1.2790 H   0  0
    1.5370    0.3890   -2.0800 H   0  0
    3.3870   -0.0820   -0.4140 H   0  0
   -1.9880   -2.6930   -0.6890 H   0  0
   -0.9900   -1.9800   -1.9360 H   0  0
   -0.8070    0.7170   -3.1640 H   0  0
   -0.2560   -0.9650   -3.0310 H   0  0
   -1.4370   -0.3240   -1.8910 H   0  0
   -4.4550    1.0390   -1.0800 H   0  0
   -3.1910    1.3090    3.7600 H   0  0
    2.2700   -4.8910   -1.0760 H   0  0
   -0.1210   -3.8870    0.2850 H   0  0
   -0.0900   -4.1840   -1.4390 H   0  0
    5.1900   -1.7340   -0.7930 H   0  0
   -6.1070    0.3810    0.6890 H   0  0
   -5.4730    0.5180    3.1040 H   0  0
    4.6330   -4.1410   -1.1250 H   0  0
  1  2  1  0
  2  3  1  0
  2  4  1  0
  2  5  1  0
  5  6  1  0
  5  7  1  0
  5  8  1  0
  7  9  1  0
  8 10  1  0
  9 11  1  0
  9 12  2  0
 10 13  1  0
 10 14  1  0
 10 15  1  0
 11 16  1  0
 12 17  1  0
 13 18  2  0
 13 19  1  0
 14 20  1  0
 15 21  1  0
 16 22  1  0
 17 23  1  0
 18 24  1  0
 18 25  1  0
 19 26  2  0
 22 27  2  0
 23 28  2  0
 24 29  2  0
 16 17  2  0
 20 25  1  0
 26 29  1  0
 27 28  1  0
  6 30  1  0
  7 31  1  0
  7 32  1  0
  8 33  1  0
  8 34  1  0
 11 35  1  0
 12 36  1  0
 14 37  1  0
 14 38  1  0
 15 39  1  0
 15 40  1  0
 19 41  1  0
 20 42  1  0
 20 43  1  0
 21 44  1  0
 21 45  1  0
 21 46  1  0
 22 47  1  0
 23 48  1  0
 24 49  1  0
 25 50  1  0
 25 51  1  0
 26 52  1  0
 27 53  1  0
 28 54  1  0
 29 55  1  0
M  END
> <Name>
CHEMBL235800

> <IC50 nM>
31.62

> <Molecule_ChEMBL_ID>
CHEMBL235800

> <Smiles>
CCC1(CC(O)(Cc2cc3ccccc3[nH]2)C(F)(F)F)CCCc2ccccc21

$$$$
CHEMBL393819
  SciTegic08162514323D

 57 60  0  0  1  0            999 V2000
    1.4380   -2.1030    1.5590 F   0  0
    1.5760   -0.7890    1.9180 C   0  0
    1.5080   -0.6800    3.2830 F   0  0
    2.7870   -0.3200    1.4830 F   0  0
    0.4530    0.0330    1.2850 C   0  0  3  0  0  0
    0.9920    0.7520    0.1970 O   0  0
   -0.1660    1.0370    2.2600 C   0  0
   -0.5660   -0.9670    0.7400 C   0  0
   -1.0550    1.9850    1.5530 N   0  0
   -0.2640   -1.3960   -0.6990 C   0  0  3  0  0  0
   -0.6070    3.2170    1.1500 C   0  0
   -2.3540    1.5690    1.3180 C   0  0
    1.0100   -2.1870   -0.6950 C   0  0
   -1.4610   -2.2030   -1.2460 C   0  0
   -0.1170   -0.1330   -1.5640 C   0  0
   -1.4920    4.1120    0.4710 C   0  0
    0.7320    3.6390    1.3930 C   0  0
   -3.2560    2.3460    0.6840 C   0  0
    1.0180   -3.6090   -0.8530 C   0  0
    2.2480   -1.5120   -0.5140 C   0  0
   -1.5060   -3.6130   -0.6580 C   0  0
   -0.7280   -0.2970   -2.9550 C   0  0
   -2.9000    3.6970    0.2030 C   0  0
   -1.0430    5.3870    0.0470 C   0  0
    1.1740    4.9120    0.9670 C   0  0
    2.2500   -4.3140   -0.8360 C   0  0
   -0.2360   -4.3850   -1.0430 C   0  0
    3.4690   -2.2230   -0.4960 C   0  0
   -3.7640    4.3360   -0.3510 O   0  0
    0.2890    5.7850    0.2950 C   0  0
    3.4690   -3.6250   -0.6600 C   0  0
    1.0610    1.6800    0.4730 H   0  0
    0.6090    1.5940    2.7830 H   0  0
   -0.7340    0.5200    3.0330 H   0  0
   -0.6410   -1.8360    1.3950 H   0  0
   -1.5780   -0.5660    0.8180 H   0  0
   -2.6890    0.5940    1.6410 H   0  0
   -2.3960   -1.6820   -1.0330 H   0  0
   -1.4000   -2.2770   -2.3340 H   0  0
   -0.5430    0.7330   -1.0550 H   0  0
    0.9280    0.1680   -1.6350 H   0  0
    1.4400    3.0020    1.9020 H   0  0
   -4.2580    1.9710    0.5250 H   0  0
    2.2700   -0.4390   -0.3830 H   0  0
   -2.3890   -4.1440   -1.0160 H   0  0
   -1.5980   -3.5590    0.4280 H   0  0
   -0.4080    0.5120   -3.6130 H   0  0
   -0.4340   -1.2500   -3.3960 H   0  0
   -1.8160   -0.2750   -2.9040 H   0  0
   -1.7110    6.0650   -0.4670 H   0  0
    2.1930    5.2210    1.1560 H   0  0
    2.2620   -5.3870   -0.9590 H   0  0
   -0.1970   -5.3120   -0.4690 H   0  0
   -0.2990   -4.6760   -2.0920 H   0  0
    4.4000   -1.6950   -0.3590 H   0  0
    0.6310    6.7580   -0.0270 H   0  0
    4.4000   -4.1700   -0.6480 H   0  0
  1  2  1  0
  2  3  1  0
  2  4  1  0
  2  5  1  0
  5  6  1  0
  5  7  1  0
  5  8  1  0
  7  9  1  0
  8 10  1  0
  9 11  1  0
  9 12  1  0
 10 13  1  0
 10 14  1  0
 10 15  1  0
 11 16  2  0
 11 17  1  0
 12 18  2  0
 13 19  2  0
 13 20  1  0
 14 21  1  0
 15 22  1  0
 16 23  1  0
 16 24  1  0
 17 25  2  0
 19 26  1  0
 19 27  1  0
 20 28  2  0
 23 29  2  0
 24 30  2  0
 26 31  2  0
 18 23  1  0
 21 27  1  0
 25 30  1  0
 28 31  1  0
  6 32  1  0
  7 33  1  0
  7 34  1  0
  8 35  1  0
  8 36  1  0
 12 37  1  0
 14 38  1  0
 14 39  1  0
 15 40  1  0
 15 41  1  0
 17 42  1  0
 18 43  1  0
 20 44  1  0
 21 45  1  0
 21 46  1  0
 22 47  1  0
 22 48  1  0
 22 49  1  0
 24 50  1  0
 25 51  1  0
 26 52  1  0
 27 53  1  0
 27 54  1  0
 28 55  1  0
 30 56  1  0
 31 57  1  0
M  END
> <Name>
CHEMBL393819

> <IC50 nM>
14.13

> <Molecule_ChEMBL_ID>
CHEMBL393819

> <Smiles>
CCC1(CC(O)(Cn2ccc(=O)c3ccccc32)C(F)(F)F)CCCc2ccccc21

$$$$
CHEMBL427384
  SciTegic08162514323D

 53 55  0  0  0  0            999 V2000
   -2.8240   -2.3650   -0.4040 S   0  0
   -1.5430   -1.4390    0.4880 C   0  0
   -2.2110   -4.0470   -0.0980 C   0  0
   -1.8500    0.0370    0.4180 C   0  0
   -0.9900   -4.2970   -0.9430 C   0  0
   -0.7640    1.0610    0.4690 C   0  0
   -3.1350    0.4320    0.3070 C   0  0
   -0.6660   -3.5210   -1.8130 O   0  0
   -0.2480   -5.4200   -0.7090 N   0  0
   -1.0960    2.4430    0.3960 C   0  0
    0.5920    0.6600    0.5860 C   0  0
   -3.5350    1.8950    0.2300 C   0  0
    0.9470   -5.6800   -1.5230 C   0  0
   -2.3890    2.8460    0.2830 N   0  0
   -0.0570    3.4080    0.4470 C   0  0
    1.6250    1.6290    0.6370 C   0  0
   -4.2890    2.1110   -1.0860 C   0  0
   -4.4690    2.1930    1.4060 C   0  0
    1.2930    3.0040    0.5660 C   0  0
    3.0160    1.2150    0.7580 C   0  0
    3.9900    1.6920   -0.1470 C   0  0
    3.3870    0.3300    1.7890 C   0  0
    3.6660    2.5220   -1.1190 O   0  0
    5.3260    1.2770   -0.0100 C   0  0
    4.7250   -0.0780    1.9180 C   0  0
    2.8170    2.0410   -2.1500 C   0  0
    5.6950    0.3950    1.0200 C   0  0
   -0.5700   -1.6370    0.0370 H   0  0
   -1.5180   -1.7640    1.5270 H   0  0
   -1.9590   -4.1560    0.9570 H   0  0
   -2.9880   -4.7680   -0.3500 H   0  0
   -3.9100   -0.3200    0.2710 H   0  0
   -0.5180   -6.0590    0.0120 H   0  0
    0.8440   -0.3890    0.6390 H   0  0
    0.6500   -5.8010   -2.5660 H   0  0
    1.6680   -4.8770   -1.3670 H   0  0
    1.4080   -6.6110   -1.1970 H   0  0
   -2.6030    3.8240    0.2300 H   0  0
   -0.2770    4.4650    0.3960 H   0  0
   -3.6580    1.9100   -1.9510 H   0  0
   -4.6410    3.1410   -1.1620 H   0  0
   -5.1580    1.4570   -1.1450 H   0  0
   -3.9730    2.0490    2.3650 H   0  0
   -5.3420    1.5390    1.3810 H   0  0
   -4.8240    3.2230    1.3650 H   0  0
    2.0650    3.7580    0.6020 H   0  0
    2.6520   -0.0450    2.4880 H   0  0
    6.0760    1.6410   -0.6970 H   0  0
    5.0080   -0.7580    2.7090 H   0  0
    1.8260    1.6990   -1.8480 H   0  0
    3.3180    1.2130   -2.6490 H   0  0
    2.6840    2.8380   -2.8830 H   0  0
    6.7230    0.0820    1.1190 H   0  0
  1  2  1  0
  1  3  1  0
  2  4  1  0
  3  5  1  0
  4  6  1  0
  4  7  2  0
  5  8  2  0
  5  9  1  0
  6 10  2  0
  6 11  1  0
  7 12  1  0
  9 13  1  0
 10 14  1  0
 10 15  1  0
 11 16  2  0
 12 17  1  0
 12 18  1  0
 15 19  2  0
 16 20  1  0
 20 21  2  0
 20 22  1  0
 21 23  1  0
 21 24  1  0
 22 25  2  0
 23 26  1  0
 24 27  2  0
 12 14  1  0
 16 19  1  0
 25 27  1  0
  2 28  1  0
  2 29  1  0
  3 30  1  0
  3 31  1  0
  7 32  1  0
  9 33  1  0
 11 34  1  0
 13 35  1  0
 13 36  1  0
 13 37  1  0
 14 38  1  0
 15 39  1  0
 17 40  1  0
 17 41  1  0
 17 42  1  0
 18 43  1  0
 18 44  1  0
 18 45  1  0
 19 46  1  0
 22 47  1  0
 24 48  1  0
 25 49  1  0
 26 50  1  0
 26 51  1  0
 26 52  1  0
 27 53  1  0
M  END
> <Name>
CHEMBL427384

> <IC50 nM>
2000

> <Molecule_ChEMBL_ID>
CHEMBL427384

> <Smiles>
CNC(=O)CSCC1=CC(C)(C)Nc2ccc(-c3ccccc3OC)cc21

$$$$
CHEMBL381387
  SciTegic08162514323D

 59 62  0  0  0  0            999 V2000
    0.1430    1.6390    0.8830 S   0  0
    1.6950    2.1640    1.6640 C   0  0
   -0.1520    0.1270    1.8440 C   0  0
    2.8540    1.2750    1.1840 C   0  0
    1.9670    3.6440    1.3550 C   0  0
   -1.5210   -0.4180    1.5200 C   0  0
    4.1990    1.7340    1.7660 C   0  0
    3.3090    4.1070    1.9390 C   0  0
   -1.7910   -1.1350    0.2380 C   0  0
   -2.5180   -0.2460    2.4100 C   0  0
    4.4670    3.2150    1.4630 C   0  0
   -3.0980   -1.6350   -0.0270 C   0  0
   -0.7500   -1.3220   -0.7090 C   0  0
   -3.9280   -0.7580    2.1680 C   0  0
   -4.1030   -1.4670    0.8670 N   0  0
   -3.3420   -2.3170   -1.2500 C   0  0
   -1.0020   -2.0020   -1.9260 C   0  0
   -4.2830   -1.7250    3.3010 C   0  0
   -4.8810    0.4370    2.2030 C   0  0
   -2.3010   -2.4960   -2.1910 C   0  0
    0.0670   -2.1900   -2.8970 C   0  0
    0.8650   -1.1000   -3.3070 C   0  0
    0.3010   -3.4730   -3.4300 C   0  0
    0.6660    0.1110   -2.8220 O   0  0
    1.8930   -1.3070   -4.2460 C   0  0
    1.3280   -3.6700   -4.3670 C   0  0
    1.5590    1.1420   -3.2190 C   0  0
    2.1250   -2.5860   -4.7750 C   0  0
    1.5860    2.0450    2.7420 H   0  0
    0.6090   -0.6130    1.5960 H   0  0
   -0.0860    0.3530    2.9080 H   0  0
    2.6640    0.2360    1.4590 H   0  0
    2.9020    1.3030    0.0940 H   0  0
    1.1580    4.2600    1.7520 H   0  0
    1.9710    3.7930    0.2750 H   0  0
    5.0040    1.1190    1.3630 H   0  0
    4.1990    1.5760    2.8460 H   0  0
    3.2580    4.0880    3.0270 H   0  0
    3.4980    5.1450    1.6580 H   0  0
   -2.3100    0.2750    3.3340 H   0  0
    5.3990    3.5310    1.9340 H   0  0
    4.6020    3.3460    0.3890 H   0  0
    0.2400   -0.9430   -0.5060 H   0  0
   -5.0180   -1.8280    0.6640 H   0  0
   -4.3240   -2.7050   -1.4810 H   0  0
   -3.6270   -2.5960    3.3130 H   0  0
   -5.3070   -2.0820    3.1950 H   0  0
   -4.2010   -1.2310    4.2700 H   0  0
   -4.6640    1.1540    1.4100 H   0  0
   -4.8090    0.9630    3.1560 H   0  0
   -5.9140    0.1110    2.0820 H   0  0
   -2.5160   -3.0180   -3.1130 H   0  0
   -0.3030   -4.3190   -3.1250 H   0  0
    2.5080   -0.4770   -4.5630 H   0  0
    1.5060   -4.6540   -4.7740 H   0  0
    1.2290    2.0740   -2.7600 H   0  0
    2.5740    0.8220   -2.9860 H   0  0
    1.4860    1.2600   -4.3010 H   0  0
    2.9140   -2.7380   -5.4960 H   0  0
  1  2  1  0
  1  3  1  0
  2  4  1  0
  2  5  1  0
  3  6  1  0
  4  7  1  0
  5  8  1  0
  6  9  1  0
  6 10  2  0
  7 11  1  0
  9 12  2  0
  9 13  1  0
 10 14  1  0
 12 15  1  0
 12 16  1  0
 13 17  2  0
 14 18  1  0
 14 19  1  0
 16 20  2  0
 17 21  1  0
 21 22  2  0
 21 23  1  0
 22 24  1  0
 22 25  1  0
 23 26  2  0
 24 27  1  0
 25 28  2  0
  8 11  1  0
 14 15  1  0
 17 20  1  0
 26 28  1  0
  2 29  1  0
  3 30  1  0
  3 31  1  0
  4 32  1  0
  4 33  1  0
  5 34  1  0
  5 35  1  0
  7 36  1  0
  7 37  1  0
  8 38  1  0
  8 39  1  0
 10 40  1  0
 11 41  1  0
 11 42  1  0
 13 43  1  0
 15 44  1  0
 16 45  1  0
 18 46  1  0
 18 47  1  0
 18 48  1  0
 19 49  1  0
 19 50  1  0
 19 51  1  0
 20 52  1  0
 23 53  1  0
 25 54  1  0
 26 55  1  0
 27 56  1  0
 27 57  1  0
 27 58  1  0
 28 59  1  0
M  END
> <Name>
CHEMBL381387

> <IC50 nM>
371

> <Molecule_ChEMBL_ID>
CHEMBL381387

> <Smiles>
COc1ccccc1-c1ccc2c(c1)C(CSC1CCCCC1)=CC(C)(C)N2

$$$$
CHEMBL363179
  SciTegic08162514323D

 57 62  0  0  1  0            999 V2000
    4.6880   -4.1130    1.7260 S   0  0
    3.0920   -4.1990    2.3300 C   0  0
    3.9380   -3.2250    0.4280 C   0  0
    2.0780   -3.5960    1.5940 C   0  0
    2.7700   -4.8570    3.5430 C   0  0
    2.5430   -2.9940    0.4370 C   0  0
    0.7270   -3.6150    2.0170 C   0  0
    1.4240   -4.8960    3.9900 C   0  0
    1.7420   -2.2460   -0.6100 C   0  0  2  0  0  0
    0.4040   -4.2730    3.2280 C   0  0
    2.3650   -2.3810   -1.8650 O   0  0
    1.6520   -0.7500   -0.2770 C   0  0  2  0  0  0
    0.4160   -0.0780   -0.9340 C   0  0  2  0  0  0
    2.9750   -0.0450   -0.6170 C   0  0
    0.4530    1.4530   -0.7640 C   0  0
   -0.8730   -0.7670   -0.3630 C   0  0
    0.4550   -0.3050   -2.4510 C   0  0
    2.9360    1.4140   -0.1680 C   0  0
   -0.6780    2.1760   -0.5820 C   0  0
    1.7870    2.1720   -0.8400 C   0  0
   -2.1230    0.1000   -0.4260 C   0  0
   -1.9690    1.4730   -0.5020 C   0  0
   -3.4380   -0.3590   -0.3870 C   0  0
   -3.2580    1.9020   -0.4810 N   0  0
   -4.0960    0.8320   -0.4220 N   0  0
   -3.6620    3.1970   -0.5180 C   0  0
   -3.0840    4.0940   -1.4380 C   0  0
   -4.6620    3.6510    0.3650 C   0  0
   -3.5040    5.4340   -1.4750 C   0  0
   -5.0800    4.9920    0.3260 C   0  0
   -4.5020    5.8850   -0.5940 C   0  0
   -4.8990    7.1550   -0.6290 F   0  0
    4.5490   -2.8520   -0.3830 H   0  0
    3.5450   -5.3320    4.1250 H   0  0
   -0.0510   -3.1410    1.4350 H   0  0
    1.1780   -5.3980    4.9140 H   0  0
    0.7420   -2.6760   -0.6780 H   0  0
   -0.6190   -4.3030    3.5700 H   0  0
    2.3260   -3.3200   -2.1040 H   0  0
    1.5350   -0.6780    0.8070 H   0  0
    3.1660   -0.1010   -1.6900 H   0  0
    3.8050   -0.5530   -0.1250 H   0  0
   -1.0590   -1.7170   -0.8670 H   0  0
   -0.7310   -1.0120    0.6910 H   0  0
   -0.3240    0.2740   -2.9490 H   0  0
    1.4260   -0.0160   -2.8580 H   0  0
    0.2950   -1.3550   -2.6900 H   0  0
    2.8160    1.4570    0.9160 H   0  0
    3.8830    1.9020   -0.3970 H   0  0
   -0.6390    3.2520   -0.5040 H   0  0
    2.0290    2.3240   -1.8930 H   0  0
    1.7110    3.1680   -0.4010 H   0  0
   -3.8610   -1.3530   -0.3380 H   0  0
   -2.3150    3.7660   -2.1250 H   0  0
   -5.1190    2.9810    1.0780 H   0  0
   -3.0570    6.1170   -2.1840 H   0  0
   -5.8480    5.3340    1.0060 H   0  0
  1  2  1  0
  1  3  1  0
  2  4  1  0
  2  5  2  0
  3  6  2  0
  4  7  2  0
  5  8  1  0
  6  9  1  0
  7 10  1  0
  9 11  1  0
  9 12  1  0
 12 13  1  0
 12 14  1  0
 13 15  1  0
 13 16  1  0
 13 17  1  0
 14 18  1  0
 15 19  2  0
 15 20  1  0
 16 21  1  0
 19 22  1  0
 21 23  1  0
 22 24  1  0
 23 25  2  0
 24 26  1  0
 26 27  2  0
 26 28  1  0
 27 29  1  0
 28 30  2  0
 29 31  2  0
 31 32  1  0
  4  6  1  0
  8 10  2  0
 18 20  1  0
 21 22  2  0
 24 25  1  0
 30 31  1  0
  3 33  1  0
  5 34  1  0
  7 35  1  0
  8 36  1  0
  9 37  1  0
 10 38  1  0
 11 39  1  0
 12 40  1  0
 14 41  1  0
 14 42  1  0
 16 43  1  0
 16 44  1  0
 17 45  1  0
 17 46  1  0
 17 47  1  0
 18 48  1  0
 18 49  1  0
 19 50  1  0
 20 51  1  0
 20 52  1  0
 23 53  1  0
 27 54  1  0
 28 55  1  0
 29 56  1  0
 30 57  1  0
M  END
> <Name>
CHEMBL363179

> <IC50 nM>
5.1

> <Molecule_ChEMBL_ID>
CHEMBL363179

> <Smiles>
C[C@]12Cc3cnn(-c4ccc(F)cc4)c3C=C1CCC[C@@H]2[C@@H](O)c1csc2ccccc12

$$$$
CHEMBL196373
  SciTegic08162514323D

 55 57  0  0  1  0            999 V2000
   -5.5200    5.6920    0.1560 O   0  0
   -5.4810    4.4850    0.2110 C   0  0
   -6.5260    3.6230    0.1410 O   0  0
   -4.2640    3.7110    0.3650 C   0  0
   -6.0610    2.2420    0.2460 C   0  0
   -4.5590    2.3610    0.3950 C   0  0
   -2.9380    4.1920    0.4780 C   0  0
   -3.5000    1.4320    0.5410 C   0  0
   -1.8790    3.2640    0.6230 C   0  0
   -2.1540    1.8710    0.6560 C   0  0
   -1.1580    0.9840    0.7950 N   0  0
   -1.1720   -0.1760    0.0720 C   0  0
   -2.0780   -0.4080   -0.6910 O   0  0
   -0.0390   -1.1500    0.2500 C   0  0  1  0  0  0
    0.0040   -1.5820    1.5920 O   0  0
   -0.3870   -2.3520   -0.6290 C   0  0
    1.3180   -0.5370   -0.0980 C   0  0
   -1.5720   -3.1520   -0.0900 C   0  0
   -0.5470   -1.9780   -2.1020 C   0  0
    2.4410   -1.5720   -0.1370 C   0  0
    3.5250   -0.5660    0.0180 C   0  0
    2.3960   -2.5370    1.0490 C   0  0
    2.5330   -2.2970   -1.4810 C   0  0
    4.1800   -0.4200    1.2540 C   0  0
    3.8960    0.2400   -1.0720 C   0  0
    5.2030    0.5310    1.4000 C   0  0
    4.9200    1.1910   -0.9260 C   0  0
    5.5740    1.3380    0.3110 C   0  0
   -6.5100    1.7770    1.1130 H   0  0
   -6.3300    1.7010   -0.6480 H   0  0
   -2.7310    5.2520    0.4530 H   0  0
   -3.7380    0.3770    0.5640 H   0  0
   -0.8650    3.6310    0.7070 H   0  0
   -0.4060    1.1720    1.4260 H   0  0
   -0.9120   -1.7210    1.8770 H   0  0
    0.4840   -2.9940   -0.7640 H   0  0
    1.5640    0.2740    0.5900 H   0  0
    1.2640    0.0080   -1.0410 H   0  0
   -1.9470   -3.8650   -0.8240 H   0  0
   -2.3930   -2.4900    0.1820 H   0  0
   -1.2870   -3.7130    0.8010 H   0  0
   -0.1040   -2.7400   -2.7440 H   0  0
   -1.6000   -1.8670   -2.3590 H   0  0
   -0.0490   -1.0330   -2.3160 H   0  0
    2.2150   -2.0160    1.9900 H   0  0
    3.3380   -3.0760    1.1450 H   0  0
    1.6020   -3.2710    0.9180 H   0  0
    1.8670   -1.8570   -2.2250 H   0  0
    2.2640   -3.3460   -1.3730 H   0  0
    3.5490   -2.2520   -1.8750 H   0  0
    3.8980   -1.0370    2.0960 H   0  0
    3.3980    0.1330   -2.0250 H   0  0
    5.7050    0.6430    2.3500 H   0  0
    5.2050    1.8130   -1.7640 H   0  0
    6.3610    2.0680    0.4220 H   0  0
  1  2  2  0
  2  3  1  0
  2  4  1  0
  3  5  1  0
  4  6  2  0
  4  7  1  0
  6  8  1  0
  7  9  2  0
  8 10  2  0
 10 11  1  0
 11 12  1  0
 12 13  2  0
 12 14  1  0
 14 15  1  0
 14 16  1  0
 14 17  1  0
 16 18  1  0
 16 19  1  0
 17 20  1  0
 20 21  1  0
 20 22  1  0
 20 23  1  0
 21 24  2  0
 21 25  1  0
 24 26  1  0
 25 27  2  0
 26 28  2  0
  5  6  1  0
  9 10  1  0
 27 28  1  0
  5 29  1  0
  5 30  1  0
  7 31  1  0
  8 32  1  0
  9 33  1  0
 11 34  1  0
 15 35  1  0
 16 36  1  0
 17 37  1  0
 17 38  1  0
 18 39  1  0
 18 40  1  0
 18 41  1  0
 19 42  1  0
 19 43  1  0
 19 44  1  0
 22 45  1  0
 22 46  1  0
 22 47  1  0
 23 48  1  0
 23 49  1  0
 23 50  1  0
 24 51  1  0
 25 52  1  0
 26 53  1  0
 27 54  1  0
 28 55  1  0
M  END
> <Name>
CHEMBL196373

> <IC50 nM>
200

> <Molecule_ChEMBL_ID>
CHEMBL196373

> <Smiles>
CC(C)C(O)(CC(C)(C)c1ccccc1)C(=O)Nc1ccc2c(c1)COC2=O

$$$$
CHEMBL1668067
  SciTegic08162514323D

 67 70  0  0  1  0            999 V2000
    1.0840   -4.2050   -0.2050 S   0  0
    2.1680   -3.9940   -1.1470 O   0  0
    1.3090   -5.3300    0.6880 O   0  0
    1.0450   -2.7910    0.8090 N   0  0
   -0.3630   -4.5040   -1.1020 C   0  0
    0.0080   -2.7070    1.8220 C   0  0  2  0  0  0
   -1.3140   -5.4240   -0.6170 C   0  0
   -0.5900   -3.8280   -2.3140 C   0  0
   -0.3650   -1.2480    2.0880 C   0  0
    0.4380   -3.4450    3.0920 C   0  0
   -2.4900   -5.6660   -1.3500 C   0  0
   -1.0800   -6.1410    0.6620 C   0  0
   -1.7680   -4.0720   -3.0430 C   0  0
    0.4080   -2.8560   -2.8320 C   0  0
   -0.9200   -0.6190    0.8790 N   0  0
   -2.7190   -4.9900   -2.5630 C   0  0
   -1.0330    0.7230    0.8110 C   0  0
   -3.9630   -5.2480   -3.3340 C   0  0
    0.1990    1.4510    0.7010 C   0  0
   -2.2750    1.4060    0.8400 C   0  0
    0.1210    2.8340    0.6290 C   0  0
    1.4770    0.8910    0.6640 C   0  0
   -2.3050    2.8220    0.7600 C   0  0
    1.4260    3.2050    0.5370 N   0  0
   -1.0980    3.5550    0.6540 C   0  0
    2.1920    2.0640    0.5590 N   0  0
   -3.5940    3.5330    0.7890 C   0  0
    1.9100    4.4710    0.4390 C   0  0
    1.3850    5.4920    1.2560 C   0  0
    2.9380    4.7660   -0.4770 C   0  0
    1.8890    6.8010    1.1520 C   0  0
    3.4380    6.0740   -0.5740 C   0  0
    2.9140    7.0960    0.2380 C   0  0
    3.3850    8.3240    0.1450 O   0  0
    4.5060    8.5450   -0.6970 C   0  0
    1.9570   -2.6740    1.2700 H   0  0
   -0.8120   -3.2310    1.3320 H   0  0
   -1.0940   -1.1760    2.8950 H   0  0
    0.5040   -0.6820    2.4200 H   0  0
   -0.3670   -3.4960    3.8240 H   0  0
    1.2850   -2.9430    3.5610 H   0  0
    0.7440   -4.4650    2.8570 H   0  0
   -3.2210   -6.3710   -0.9790 H   0  0
   -0.7770   -5.4980    1.4880 H   0  0
   -0.3030   -6.8910    0.5230 H   0  0
   -1.9920   -6.6600    0.9610 H   0  0
   -1.9430   -3.5530   -3.9770 H   0  0
    0.8220   -2.1920   -2.0720 H   0  0
   -0.0530   -2.2340   -3.6020 H   0  0
    1.2360   -3.3950   -3.2910 H   0  0
   -1.2170   -1.1740    0.1040 H   0  0
   -4.0390   -4.6820   -4.2620 H   0  0
   -4.8280   -5.0000   -2.7190 H   0  0
   -4.0230   -6.3070   -3.5820 H   0  0
   -3.2010    0.8510    0.9220 H   0  0
    1.8540   -0.1230    0.6990 H   0  0
   -1.1050    4.6330    0.5940 H   0  0
   -4.4630    2.8810    0.8830 H   0  0
   -3.7090    4.1130   -0.1250 H   0  0
   -3.6050    4.2270    1.6290 H   0  0
    0.5960    5.2870    1.9650 H   0  0
    3.3540    3.9960   -1.1110 H   0  0
    1.4830    7.5800    1.7810 H   0  0
    4.2270    6.2970   -1.2770 H   0  0
    5.3360    7.9450   -0.3260 H   0  0
    4.2010    8.3610   -1.7270 H   0  0
    4.7910    9.5940   -0.6170 H   0  0
  1  2  2  0
  1  3  2  0
  1  4  1  0
  1  5  1  0
  4  6  1  0
  5  7  2  0
  5  8  1  0
  6  9  1  0
  6 10  1  0
  7 11  1  0
  7 12  1  0
  8 13  2  0
  8 14  1  0
  9 15  1  0
 11 16  2  0
 15 17  1  0
 16 18  1  0
 17 19  2  0
 17 20  1  0
 19 21  1  0
 19 22  1  0
 20 23  2  0
 21 24  1  0
 21 25  2  0
 22 26  2  0
 23 27  1  0
 24 28  1  0
 28 29  2  0
 28 30  1  0
 29 31  1  0
 30 32  2  0
 31 33  2  0
 33 34  1  0
 34 35  1  0
 13 16  1  0
 23 25  1  0
 24 26  1  0
 32 33  1  0
  4 36  1  0
  6 37  1  0
  9 38  1  0
  9 39  1  0
 10 40  1  0
 10 41  1  0
 10 42  1  0
 11 43  1  0
 12 44  1  0
 12 45  1  0
 12 46  1  0
 13 47  1  0
 14 48  1  0
 14 49  1  0
 14 50  1  0
 15 51  1  0
 18 52  1  0
 18 53  1  0
 18 54  1  0
 20 55  1  0
 22 56  1  0
 25 57  1  0
 27 58  1  0
 27 59  1  0
 27 60  1  0
 29 61  1  0
 30 62  1  0
 31 63  1  0
 32 64  1  0
 35 65  1  0
 35 66  1  0
 35 67  1  0
M  END
> <Name>
CHEMBL1668067

> <IC50 nM>
15.85

> <Molecule_ChEMBL_ID>
CHEMBL1668067

> <Smiles>
COc1ccc(-n2ncc3c(NC[C@H](C)NS(=O)(=O)c4c(C)cc(C)cc4C)cc(C)cc32)cc1

$$$$
CHEMBL1682441
  SciTegic08162514323D

 45 48  0  0  1  0            999 V2000
   -0.1990    2.0780    0.3770 F   0  0
    0.1110    0.7810    0.3220 C   0  0
    1.4750    0.3910    0.2740 C   0  0
   -0.9200   -0.2050    0.3130 C   0  0
    1.8240   -0.9810    0.1950 C   0  0
    2.5260    1.4020    0.3050 C   0  0
   -0.5620   -1.5860    0.1740 C   0  0
   -2.3590    0.2010    0.4320 C   0  0  1  0  0  0
    3.1000   -1.3690    0.1700 F   0  0
    0.8090   -1.9570    0.1410 C   0  0
    3.4120    1.5760   -0.7890 C   0  0
    2.6740    2.2380    1.4430 C   0  0
   -1.5060   -2.5590    0.0660 N   0  0
   -3.2770   -0.9960    0.7720 C   0  0  2  0  0  0
   -2.5720    1.3110    1.4790 C   0  0
    3.5240    0.9340   -2.0180 N   0  0
    4.3990    2.5290   -0.7580 C   0  0
    3.6970    3.2230    1.4710 C   0  0
   -2.9530   -2.2520   -0.0700 C   0  0
   -4.6330   -0.6230    0.5900 O   0  0
    4.6060    1.5350   -2.7070 C   0  0
    4.5740    3.3770    0.3630 C   0  0
    5.1430    2.5430   -1.8870 C   0  0
   -3.2580   -2.0310   -1.5590 C   0  0
   -3.7620   -3.4550    0.4300 C   0  0
   -2.6440    0.6000   -0.5450 H   0  0
    1.0940   -2.9980    0.0680 H   0  0
    2.0160    2.1370    2.2970 H   0  0
   -1.2300   -3.5240    0.0530 H   0  0
   -3.1680   -1.2420    1.8300 H   0  0
   -2.3570    2.2910    1.0510 H   0  0
   -3.5980    1.3010    1.8460 H   0  0
   -1.9100    1.1680    2.3320 H   0  0
    2.9550    0.1910   -2.3530 H   0  0
    3.8110    3.8590    2.3380 H   0  0
   -5.1700   -1.2150    1.1430 H   0  0
    4.9300    1.2400   -3.6970 H   0  0
    5.3520    4.1250    0.3870 H   0  0
    5.9770    3.1890   -2.1210 H   0  0
   -2.6970   -1.1900   -1.9690 H   0  0
   -4.3180   -1.8280   -1.7090 H   0  0
   -3.0020   -2.9160   -2.1410 H   0  0
   -3.6000   -3.6430    1.4920 H   0  0
   -3.4840   -4.3590   -0.1130 H   0  0
   -4.8280   -3.2910    0.2810 H   0  0
  1  2  1  0
  2  3  2  0
  2  4  1  0
  3  5  1  0
  3  6  1  0
  4  7  2  0
  4  8  1  0
  5  9  1  0
  5 10  2  0
  6 11  2  0
  6 12  1  0
  7 13  1  0
  8 14  1  0
  8 15  1  0
 11 16  1  0
 11 17  1  0
 12 18  2  0
 13 19  1  0
 14 20  1  0
 16 21  1  0
 17 22  2  0
 17 23  1  0
 19 24  1  0
 19 25  1  0
  7 10  1  0
 14 19  1  0
 18 22  1  0
 21 23  2  0
  8 26  1  0
 10 27  1  0
 12 28  1  0
 13 29  1  0
 14 30  1  0
 15 31  1  0
 15 32  1  0
 15 33  1  0
 16 34  1  0
 18 35  1  0
 20 36  1  0
 21 37  1  0
 22 38  1  0
 23 39  1  0
 24 40  1  0
 24 41  1  0
 24 42  1  0
 25 43  1  0
 25 44  1  0
 25 45  1  0
M  END
> <Name>
CHEMBL1682441

> <IC50 nM>
1.5

> <Molecule_ChEMBL_ID>
CHEMBL1682441

> <Smiles>
C[C@H]1c2c(cc(F)c(-c3cccc4cc[nH]c34)c2F)NC(C)(C)[C@@H]1O

$$$$
CHEMBL1668063
  SciTegic08162514323D

 60 63  0  0  1  0            999 V2000
   -3.7680   -5.3050    0.0530 Cl  0  0
   -2.1330   -5.8010   -0.1480 C   0  0
   -1.2320   -5.0760   -0.9670 C   0  0
   -1.6930   -6.9570    0.5220 C   0  0
    0.1040   -5.5220   -1.1030 C   0  0
   -1.6930   -3.8420   -1.6830 C   0  0
   -0.3670   -7.3970    0.3810 C   0  0
    1.2380   -4.6800   -2.0820 Cl  0  0
    0.5270   -6.6820   -0.4280 C   0  0
   -2.5100   -3.9060   -2.5740 O   0  0
   -1.1740   -2.6330   -1.3120 N   0  0
   -0.3610   -2.5430   -0.0920 C   0  0
   -1.4080   -1.4180   -2.1050 C   0  0
   -1.1870   -2.0100    1.0800 C   0  0  1  0  0  0
   -0.8850   -1.5860   -3.5330 C   0  0
   -2.3810   -2.7580    1.1530 O   0  0
   -0.3750   -2.2810    2.3460 C   0  0
   -1.5550   -0.5350    0.9180 C   0  0
   -0.3670   -3.6270    2.6040 F   0  0
   -0.9390   -1.6150    3.4030 F   0  0
    0.9120   -1.8420    2.1660 F   0  0
   -0.3520    0.2970    0.7760 N   0  0
   -0.4630    1.6370    0.7070 C   0  0
    0.7720    2.3630    0.5980 C   0  0
   -1.7050    2.3220    0.7370 C   0  0
    0.6950    3.7480    0.5260 C   0  0
    2.0470    1.8010    0.5610 C   0  0
   -1.7320    3.7380    0.6560 C   0  0
    1.9980    4.1150    0.4340 N   0  0
   -0.5230    4.4690    0.5510 C   0  0
    2.7620    2.9730    0.4550 N   0  0
    2.4840    5.3810    0.3360 C   0  0
    3.5140    5.6760   -0.5780 C   0  0
    1.9590    6.4040    1.1510 C   0  0
    4.0140    6.9840   -0.6780 C   0  0
    2.4610    7.7130    1.0490 C   0  0
    3.4880    8.0040    0.1350 C   0  0
    3.9630    9.2420    0.0410 F   0  0
   -2.3670   -7.5200    1.1530 H   0  0
   -0.0350   -8.2850    0.8990 H   0  0
    1.5450   -7.0350   -0.5250 H   0  0
    0.4980   -1.8980   -0.2810 H   0  0
    0.0490   -3.5250    0.1410 H   0  0
   -2.4750   -1.1910   -2.1090 H   0  0
   -0.9260   -0.5720   -1.6150 H   0  0
   -1.0160   -0.6660   -4.1010 H   0  0
    0.1700   -1.8540   -3.5270 H   0  0
   -1.4280   -2.3770   -4.0510 H   0  0
   -2.9020   -2.3910    1.8830 H   0  0
   -2.1330   -0.1860    1.7760 H   0  0
   -2.1950   -0.3910    0.0490 H   0  0
    0.5510   -0.1330    0.7310 H   0  0
   -2.6370    1.7770    0.8170 H   0  0
    2.4220    0.7850    0.5960 H   0  0
   -2.6760    4.2620    0.6780 H   0  0
   -0.5370    5.5470    0.4900 H   0  0
    3.9300    4.9040   -1.2130 H   0  0
    1.1680    6.1990    1.8600 H   0  0
    4.8050    7.2050   -1.3810 H   0  0
    2.0550    8.4920    1.6760 H   0  0
  1  2  1  0
  2  3  2  0
  2  4  1  0
  3  5  1  0
  3  6  1  0
  4  7  2  0
  5  8  1  0
  5  9  2  0
  6 10  2  0
  6 11  1  0
 11 12  1  0
 11 13  1  0
 12 14  1  0
 13 15  1  0
 14 16  1  0
 14 17  1  0
 14 18  1  0
 17 19  1  0
 17 20  1  0
 17 21  1  0
 18 22  1  0
 22 23  1  0
 23 24  2  0
 23 25  1  0
 24 26  1  0
 24 27  1  0
 25 28  2  0
 26 29  1  0
 26 30  2  0
 27 31  2  0
 29 32  1  0
 32 33  2  0
 32 34  1  0
 33 35  1  0
 34 36  2  0
 35 37  2  0
 37 38  1  0
  7  9  1  0
 28 30  1  0
 29 31  1  0
 36 37  1  0
  4 39  1  0
  7 40  1  0
  9 41  1  0
 12 42  1  0
 12 43  1  0
 13 44  1  0
 13 45  1  0
 15 46  1  0
 15 47  1  0
 15 48  1  0
 16 49  1  0
 18 50  1  0
 18 51  1  0
 22 52  1  0
 25 53  1  0
 27 54  1  0
 28 55  1  0
 30 56  1  0
 33 57  1  0
 34 58  1  0
 35 59  1  0
 36 60  1  0
M  END
> <Name>
CHEMBL1668063

> <IC50 nM>
15.85

> <Molecule_ChEMBL_ID>
CHEMBL1668063

> <Smiles>
CCN(C[C@](O)(CNc1cccc2c1cnn2-c1ccc(F)cc1)C(F)(F)F)C(=O)c1c(Cl)cccc1Cl

$$$$
CHEMBL304258
  SciTegic08162514323D

 48 51  0  0  1  0            999 V2000
   -3.4080   -1.8730    2.0390 O   0  0
   -3.9530   -1.0660    1.3220 C   0  0
   -3.2190   -0.3050    0.4590 N   0  0
   -5.4470   -0.8790    1.3610 C   0  0
   -1.8890   -0.4490    0.4020 C   0  0
   -6.1370   -1.4410    0.1190 C   0  0
   -1.0470    0.6840    0.2830 C   0  0
   -1.3070   -1.7340    0.4570 C   0  0
    0.3690    0.5430    0.2230 C   0  0
    0.0960   -1.8910    0.4100 C   0  0
    0.9550   -0.7560    0.3220 C   0  0
    1.2560    1.7420    0.0800 C   0  0  1  0  0  0
    2.4370   -0.8710    0.3220 C   0  0
    2.5640    1.4240   -0.4200 O   0  0
    0.6930    2.7890   -0.8220 C   0  0
    3.1820    0.2720   -0.0980 C   0  0
    3.1560   -2.0470    0.7150 C   0  0
    0.3180    4.0410   -0.3010 C   0  0
    0.5350    2.5250   -2.1950 C   0  0
    4.5900    0.2170   -0.1990 C   0  0
    2.5530   -3.1410    1.1950 O   0  0
    4.5680   -2.0820    0.6170 C   0  0
   -0.2130    5.0260   -1.1510 C   0  0
    0.0040    3.5120   -3.0450 C   0  0
    5.2830   -0.9590    0.1540 C   0  0
    3.2540   -4.3730    1.1310 C   0  0
   -0.3710    4.7620   -2.5240 C   0  0
   -3.6760    0.3610   -0.1330 H   0  0
   -5.8650   -1.4220    2.2090 H   0  0
   -5.6840    0.1760    1.4900 H   0  0
   -7.2210   -1.3730    0.2170 H   0  0
   -5.8260   -0.9000   -0.7740 H   0  0
   -5.8810   -2.4920   -0.0220 H   0  0
   -1.4900    1.6680    0.2400 H   0  0
   -1.9260   -2.6170    0.5370 H   0  0
    0.4610   -2.9020    0.4390 H   0  0
    1.3830    2.1800    1.0700 H   0  0
    0.4370    4.2500    0.7520 H   0  0
    0.8200    1.5660   -2.6020 H   0  0
    5.1410    1.0800   -0.5450 H   0  0
    5.1050   -2.9770    0.9000 H   0  0
   -0.5000    5.9860   -0.7500 H   0  0
   -0.1170    3.3090   -4.0980 H   0  0
    6.3590   -0.9980    0.0740 H   0  0
    2.6700   -5.2790    1.2950 H   0  0
    4.0510   -4.3540    1.8730 H   0  0
    3.7170   -4.4510    0.1460 H   0  0
   -0.7770    5.5200   -3.1760 H   0  0
  1  2  2  0
  2  3  1  0
  2  4  1  0
  3  5  1  0
  4  6  1  0
  5  7  2  0
  5  8  1  0
  7  9  1  0
  8 10  2  0
  9 11  2  0
  9 12  1  0
 11 13  1  0
 12 14  1  0
 12 15  1  0
 13 16  2  0
 13 17  1  0
 15 18  2  0
 15 19  1  0
 16 20  1  0
 17 21  1  0
 17 22  2  0
 18 23  1  0
 19 24  2  0
 20 25  2  0
 21 26  1  0
 23 27  2  0
 10 11  1  0
 14 16  1  0
 22 25  1  0
 24 27  1  0
  3 28  1  0
  4 29  1  0
  4 30  1  0
  6 31  1  0
  6 32  1  0
  6 33  1  0
  7 34  1  0
  8 35  1  0
 10 36  1  0
 12 37  1  0
 18 38  1  0
 19 39  1  0
 20 40  1  0
 22 41  1  0
 23 42  1  0
 24 43  1  0
 25 44  1  0
 26 45  1  0
 26 46  1  0
 26 47  1  0
 27 48  1  0
M  END
> <Name>
CHEMBL304258

> <IC50 nM>
160

> <Molecule_ChEMBL_ID>
CHEMBL304258

> <Smiles>
CCC(=O)Nc1ccc2c(c1)C(c1ccccc1)Oc1cccc(OC)c1-2

$$$$
CHEMBL294800
  SciTegic08162514323D

 49 52  0  0  1  0            999 V2000
   -4.4300   -1.8260    0.9810 S   0  0
   -4.2290   -2.6600   -0.1910 O   0  0
   -4.0630   -2.4840    2.2210 O   0  0
   -3.4810   -0.5230    0.8180 N   0  0
   -6.1540   -1.3550    1.0630 C   0  0
   -2.1490   -0.6680    0.7620 C   0  0
   -1.3070    0.4630    0.6430 C   0  0
   -1.5670   -1.9550    0.8180 C   0  0
    0.1090    0.3240    0.5820 C   0  0
   -0.1640   -2.1090    0.7700 C   0  0
    0.6930   -0.9760    0.6820 C   0  0
    0.9960    1.5220    0.4390 C   0  0  1  0  0  0
    2.1760   -1.0900    0.6840 C   0  0
    2.3030    1.2050   -0.0590 O   0  0
    0.4320    2.5680   -0.4630 C   0  0
    2.9200    0.0510    0.2620 C   0  0
    2.8960   -2.2660    1.0740 C   0  0
    0.3670    2.3440   -1.8500 C   0  0
   -0.0350    3.7810    0.0740 C   0  0
    4.3300   -0.0020    0.1620 C   0  0
    2.2910   -3.3610    1.5570 O   0  0
    4.3070   -2.3030    0.9790 C   0  0
   -0.1640    3.3300   -2.6990 C   0  0
   -0.5660    4.7680   -0.7750 C   0  0
    5.0210   -1.1780    0.5160 C   0  0
    2.9920   -4.5940    1.4860 C   0  0
   -0.6310    4.5430   -2.1600 C   0  0
   -0.2330    3.0920   -4.1640 C   0  0
   -3.8870    0.3890    0.7620 H   0  0
   -6.8420   -2.1910    1.1720 H   0  0
   -6.4260   -0.8140    0.1560 H   0  0
   -6.3070   -0.6850    1.9100 H   0  0
   -1.7520    1.4470    0.6020 H   0  0
   -2.1860   -2.8380    0.8970 H   0  0
    0.2010   -3.1230    0.7990 H   0  0
    1.1210    1.9590    1.4320 H   0  0
    0.7260    1.4120   -2.2620 H   0  0
    0.0120    3.9610    1.1390 H   0  0
    4.8810    0.8590   -0.1860 H   0  0
    4.8440   -3.1950    1.2620 H   0  0
   -0.9260    5.6990   -0.3630 H   0  0
    6.0980   -1.2170    0.4340 H   0  0
    2.2990   -5.3950    1.7420 H   0  0
    3.4670   -4.6620    0.5080 H   0  0
    3.7810   -4.5820    2.2380 H   0  0
   -1.0410    5.3050   -2.8090 H   0  0
   -0.6600    3.9180   -4.7320 H   0  0
   -0.8340    2.2050   -4.3610 H   0  0
    0.7690    2.9060   -4.5490 H   0  0
  1  2  2  0
  1  3  2  0
  1  4  1  0
  1  5  1  0
  4  6  1  0
  6  7  2  0
  6  8  1  0
  7  9  1  0
  8 10  2  0
  9 11  2  0
  9 12  1  0
 11 13  1  0
 12 14  1  0
 12 15  1  0
 13 16  2  0
 13 17  1  0
 15 18  2  0
 15 19  1  0
 16 20  1  0
 17 21  1  0
 17 22  2  0
 18 23  1  0
 19 24  2  0
 20 25  2  0
 21 26  1  0
 23 27  2  0
 23 28  1  0
 10 11  1  0
 14 16  1  0
 22 25  1  0
 24 27  1  0
  4 29  1  0
  5 30  1  0
  5 31  1  0
  5 32  1  0
  7 33  1  0
  8 34  1  0
 10 35  1  0
 12 36  1  0
 18 37  1  0
 19 38  1  0
 20 39  1  0
 22 40  1  0
 24 41  1  0
 25 42  1  0
 26 43  1  0
 26 44  1  0
 26 45  1  0
 27 46  1  0
 28 47  1  0
 28 48  1  0
 28 49  1  0
M  END
> <Name>
CHEMBL294800

> <IC50 nM>
1

> <Molecule_ChEMBL_ID>
CHEMBL294800

> <Smiles>
COc1cccc2c1-c1ccc(NS(C)(=O)=O)cc1C(c1cccc(C)c1)O2

$$$$
CHEMBL3093462
  SciTegic08162514323D

 48 50  0  0  1  0            999 V2000
    1.6500    1.6940   -4.9420 Cl  0  0
    0.1580    0.9860   -4.4750 C   0  0
   -0.0660    0.5940   -3.1390 C   0  0
   -0.8500    0.7990   -5.4380 C   0  0
    1.1720    0.8180   -1.9490 S   0  0
   -1.2990    0.0160   -2.7720 C   0  0
   -2.0800    0.2230   -5.0720 C   0  0
    2.0290    1.9100   -2.3810 O   0  0
    1.8830   -0.4370   -1.7850 O   0  0
    0.6020    1.2560   -0.3630 N   0  0
   -1.5290   -0.3710   -1.4770 N   0  0
   -2.3050   -0.1680   -3.7400 C   0  0
   -3.3070   -0.0060   -6.2500 Cl  0  0
    1.5840    1.4180    0.6930 C   0  0  2  0  0  0
    0.9550    1.1370    2.0590 C   0  0
    2.2320    2.8030    0.6170 C   0  0
    0.4690   -0.2500    2.1390 N   0  0
    3.5060    2.9060    1.4550 C   0  0
   -0.8530   -0.6660    2.1580 C   0  0
    1.2720   -1.4160    2.2130 C   0  0
   -0.8360   -2.0350    2.2420 C   0  0
   -2.0680    0.0570    2.1070 C   0  0
    0.4200   -2.5350    2.2790 C   0  0
   -2.0390   -2.7850    2.2810 C   0  0
   -3.2870   -0.6680    2.1460 C   0  0
    0.8440   -3.9860    2.3710 C   0  0
   -3.2730   -2.0860    2.2340 C   0  0
   -0.6800    1.1000   -6.4630 H   0  0
    0.0490    2.1230   -0.4260 H   0  0
   -0.7850   -0.4980   -0.8220 H   0  0
   -2.4650   -0.5350   -1.1640 H   0  0
   -3.2520   -0.6090   -3.4650 H   0  0
    2.3050    0.6430    0.4360 H   0  0
    0.1190    1.8240    2.1970 H   0  0
    1.6720    1.3190    2.8590 H   0  0
    2.4300    3.0780   -0.4200 H   0  0
    1.5200    3.5760    0.9000 H   0  0
    3.9920    3.8690    1.3010 H   0  0
    3.2790    2.7890    2.5160 H   0  0
    4.2150    2.1250    1.1780 H   0  0
    2.3540   -1.4060    2.2170 H   0  0
   -2.0700    1.1350    2.0390 H   0  0
   -2.0270   -3.8630    2.3480 H   0  0
   -4.2290   -0.1390    2.1110 H   0  0
    1.9220   -4.1410    2.3850 H   0  0
    0.4400   -4.5370    1.5200 H   0  0
    0.4320   -4.4280    3.2770 H   0  0
   -4.2030   -2.6350    2.2640 H   0  0
  1  2  1  0
  2  3  2  0
  2  4  1  0
  3  5  1  0
  3  6  1  0
  4  7  2  0
  5  8  2  0
  5  9  2  0
  5 10  1  0
  6 11  1  0
  6 12  2  0
  7 13  1  0
 14 10  1  0
 14 15  1  0
 14 16  1  0
 15 17  1  0
 16 18  1  0
 17 19  1  0
 17 20  1  0
 19 21  1  0
 19 22  2  0
 20 23  2  0
 21 24  2  0
 22 25  1  0
 23 26  1  0
 24 27  1  0
  7 12  1  0
 21 23  1  0
 25 27  2  0
  4 28  1  0
 10 29  1  0
 11 30  1  0
 11 31  1  0
 12 32  1  0
 14 33  1  0
 15 34  1  0
 15 35  1  0
 16 36  1  0
 16 37  1  0
 18 38  1  0
 18 39  1  0
 18 40  1  0
 20 41  1  0
 22 42  1  0
 24 43  1  0
 25 44  1  0
 26 45  1  0
 26 46  1  0
 26 47  1  0
 27 48  1  0
M  END
> <Name>
CHEMBL3093462

> <IC50 nM>
10

> <Molecule_ChEMBL_ID>
CHEMBL3093462

> <Smiles>
CC[C@@H](Cn1cc(C)c2ccccc21)NS(=O)(=O)c1c(N)cc(Cl)cc1Cl

$$$$
CHEMBL1255079
  SciTegic08162514323D

 51 53  0  0  1  0            999 V2000
    5.7310   -0.7210    3.0330 F   0  0
    4.9140    0.1270    2.4120 C   0  0
    3.9160   -0.3590    1.5510 C   0  0
    5.0490    1.5120    2.6170 C   0  0
    3.0530    0.5350    0.8950 C   0  0
    4.1860    2.4060    1.9610 C   0  0
    3.1860    1.9220    1.0980 C   0  0
    2.0000    0.0080   -0.0160 C   0  0
    2.3830    2.7710    0.4880 O   0  0
    0.8750    0.1740    1.0080 C   0  0
    2.2540   -1.4550   -0.3810 C   0  0
    1.8160    0.9000   -1.2420 C   0  0
    2.6330    4.1600    0.6480 C   0  0
   -0.4120   -0.5370    0.5880 C   0  0  1  0  0  0
   -0.2190   -1.9260    0.7380 O   0  0
   -1.4940   -0.0980    1.5740 C   0  0
   -0.7930   -0.2620   -0.8670 C   0  0
   -1.8690    1.1910    1.2970 F   0  0
   -1.0040   -0.1660    2.8520 F   0  0
   -2.5820   -0.9240    1.4590 F   0  0
   -2.1800   -0.7790   -1.1780 C   0  0
   -2.5330   -2.0720   -1.4180 N   0  0
   -3.4120   -0.1290   -1.3030 C   0  0
   -3.8630   -2.1540   -1.6600 N   0  0
   -4.4960   -0.9510   -1.6020 C   0  0
   -4.7540   -3.2480   -1.9670 C   0  0
   -5.9380   -0.6820   -1.8120 C   0  0
   -6.0880   -3.0920   -2.1740 C   0  0
   -6.7110   -1.7480   -2.0940 C   0  0
    3.8130   -1.4240    1.3950 H   0  0
    5.8150    1.8910    3.2770 H   0  0
    4.2930    3.4690    2.1210 H   0  0
    0.6860    1.2280    1.2050 H   0  0
    1.1970   -0.1640    1.9920 H   0  0
    3.2620   -1.6080   -0.7660 H   0  0
    1.5510   -1.7870   -1.1460 H   0  0
    2.1290   -2.0980    0.4900 H   0  0
    2.7440    1.4000   -1.5230 H   0  0
    1.0700    1.6700   -1.0510 H   0  0
    1.4810    0.3140   -2.0980 H   0  0
    2.4510    4.4220    1.6910 H   0  0
    3.6310    4.3730    0.2660 H   0  0
    1.9180    4.7090    0.0370 H   0  0
   -0.1660   -2.3050   -0.1540 H   0  0
   -0.0720   -0.7190   -1.5470 H   0  0
   -0.7440    0.8070   -1.0820 H   0  0
   -3.5180    0.9410   -1.1740 H   0  0
   -4.3750   -4.2580   -2.0430 H   0  0
   -6.3420    0.3180   -1.7420 H   0  0
   -6.6990   -3.9530   -2.4000 H   0  0
   -7.7720   -1.6270   -2.2560 H   0  0
  1  2  1  0
  2  3  2  0
  2  4  1  0
  3  5  1  0
  4  6  2  0
  5  7  2  0
  5  8  1  0
  7  9  1  0
  8 10  1  0
  8 11  1  0
  8 12  1  0
  9 13  1  0
 10 14  1  0
 14 15  1  0
 14 16  1  0
 14 17  1  0
 16 18  1  0
 16 19  1  0
 16 20  1  0
 17 21  1  0
 21 22  2  0
 21 23  1  0
 22 24  1  0
 23 25  2  0
 24 26  1  0
 25 27  1  0
 26 28  2  0
 27 29  2  0
  6  7  1  0
 24 25  1  0
 28 29  1  0
  3 30  1  0
  4 31  1  0
  6 32  1  0
 10 33  1  0
 10 34  1  0
 11 35  1  0
 11 36  1  0
 11 37  1  0
 12 38  1  0
 12 39  1  0
 12 40  1  0
 13 41  1  0
 13 42  1  0
 13 43  1  0
 15 44  1  0
 17 45  1  0
 17 46  1  0
 23 47  1  0
 26 48  1  0
 27 49  1  0
 28 50  1  0
 29 51  1  0
M  END
> <Name>
CHEMBL1255079

> <IC50 nM>
2000

> <Molecule_ChEMBL_ID>
CHEMBL1255079

> <Smiles>
COc1ccc(F)cc1C(C)(C)CC(O)(Cc1cc2ccccn2n1)C(F)(F)F

$$$$
CHEMBL1911648
  SciTegic08162514323D

 55 57  0  0  1  0            999 V2000
    4.1740   -3.7380    3.2230 F   0  0
    4.2360   -2.6820    2.4160 C   0  0
    3.1520   -2.3730    1.5740 C   0  0
    5.3850   -1.8730    2.4040 C   0  0
    3.2190   -1.2580    0.7210 C   0  0
    5.4510   -0.7580    1.5510 C   0  0
    4.3710   -0.4450    0.7090 C   0  0
    2.0660   -0.9400   -0.1660 C   0  0
    4.4430    0.6030   -0.0880 O   0  0
    1.7690    0.3980    0.5120 C   0  0
    0.9340   -1.9510    0.0020 C   0  0
    2.5040   -0.7810   -1.6210 C   0  0
    5.1660    1.7360    0.3690 C   0  0
    0.2950    0.7910    0.4180 C   0  0  1  0  0  0
   -0.4470   -0.0820    1.2360 O   0  0
    0.1820    2.2030    0.9960 C   0  0
   -0.2520    0.6930   -1.0060 C   0  0
   -1.1290    2.4730    1.2910 F   0  0
    0.6410    3.1110    0.0780 F   0  0
    0.9340    2.2890    2.1390 F   0  0
   -1.7660    0.6660   -1.0120 C   0  0
   -2.5650    1.8360   -1.0880 N   0  0
   -2.6210   -0.4490   -0.9470 C   0  0
   -3.8870    1.4240   -1.0680 C   0  0
   -3.8730    0.0550   -0.9840 C   0  0
   -5.1000    2.1480   -1.1190 C   0  0
   -5.0740   -0.6950   -0.9450 C   0  0
   -6.3210    1.4260   -1.0800 C   0  0
   -6.3090    0.0060   -0.9920 C   0  0
   -7.5780   -0.7380   -0.9510 C   0  0
   -7.3170   -2.0800   -0.8520 F   0  0
   -8.2870   -0.4960   -2.1000 F   0  0
   -8.3110   -0.3320    0.1330 F   0  0
    2.2690   -2.9960    1.5840 H   0  0
    6.2210   -2.1060    3.0490 H   0  0
    6.3360   -0.1410    1.5450 H   0  0
    2.4040    1.1850    0.1050 H   0  0
    2.1000    0.3870    1.5510 H   0  0
    1.2320   -2.9530   -0.3070 H   0  0
    0.0680   -1.6640   -0.5940 H   0  0
    0.6170   -2.0060    1.0450 H   0  0
    2.4020   -1.7110   -2.1820 H   0  0
    3.5470   -0.4710   -1.6780 H   0  0
    1.9040   -0.0220   -2.1230 H   0  0
    5.1310    1.7480    1.4590 H   0  0
    6.1580    1.7150   -0.0820 H   0  0
    4.6560    2.6330    0.0120 H   0  0
   -1.3750    0.1970    1.1880 H   0  0
    0.1270   -0.1990   -1.5040 H   0  0
    0.0980    1.5270   -1.6130 H   0  0
   -2.2350    2.7710   -1.1430 H   0  0
   -2.3300   -1.4900   -0.8830 H   0  0
   -5.1000    3.2260   -1.1860 H   0  0
   -5.0570   -1.7740   -0.8790 H   0  0
   -7.2580    1.9610   -1.1170 H   0  0
  1  2  1  0
  2  3  2  0
  2  4  1  0
  3  5  1  0
  4  6  2  0
  5  7  2  0
  5  8  1  0
  7  9  1  0
  8 10  1  0
  8 11  1  0
  8 12  1  0
  9 13  1  0
 10 14  1  0
 14 15  1  0
 14 16  1  0
 14 17  1  0
 16 18  1  0
 16 19  1  0
 16 20  1  0
 17 21  1  0
 21 22  1  0
 21 23  2  0
 22 24  1  0
 23 25  1  0
 24 26  1  0
 25 27  1  0
 26 28  2  0
 27 29  2  0
 29 30  1  0
 30 31  1  0
 30 32  1  0
 30 33  1  0
  6  7  1  0
 24 25  2  0
 28 29  1  0
  3 34  1  0
  4 35  1  0
  6 36  1  0
 10 37  1  0
 10 38  1  0
 11 39  1  0
 11 40  1  0
 11 41  1  0
 12 42  1  0
 12 43  1  0
 12 44  1  0
 13 45  1  0
 13 46  1  0
 13 47  1  0
 15 48  1  0
 17 49  1  0
 17 50  1  0
 22 51  1  0
 23 52  1  0
 26 53  1  0
 27 54  1  0
 28 55  1  0
M  END
> <Name>
CHEMBL1911648

> <IC50 nM>
290

> <Molecule_ChEMBL_ID>
CHEMBL1911648

> <Smiles>
COc1ccc(F)cc1C(C)(C)CC(O)(Cc1cc2cc(C(F)(F)F)ccc2[nH]1)C(F)(F)F

$$$$
CHEMBL1668075
  SciTegic08162514323D

 75 78  0  0  1  0            999 V2000
   -0.8730   -5.7250    0.4340 S   0  0
   -1.9040   -6.7460    0.4800 O   0  0
   -0.0310   -5.8140   -0.7460 O   0  0
   -1.7110   -4.2030    0.3090 N   0  0
    0.1290   -5.8960    1.8320 C   0  0
   -2.4650   -3.9370   -0.9040 C   0  0  2  0  0  0
    0.2930   -7.1620    2.4260 C   0  0
    0.7770   -4.7710    2.3730 C   0  0
   -2.8300   -2.4550   -0.9940 C   0  0
   -3.6860   -4.8540   -0.9880 C   0  0
    1.1090   -7.3010    3.5630 C   0  0
   -0.3910   -8.3540    1.8570 C   0  0
    1.5920   -4.9140    3.5120 C   0  0
    0.6070   -3.4320    1.7500 C   0  0
   -1.6250   -1.6210   -1.1150 N   0  0
    1.7580   -6.1780    4.1050 C   0  0
   -1.7380   -0.2810   -1.1860 C   0  0
    2.6190   -6.3260    5.3090 C   0  0
   -0.5080    0.4490   -1.2930 C   0  0
   -2.9830    0.4020   -1.1560 C   0  0
   -0.5840    1.8320   -1.3670 C   0  0
    0.7690   -0.1130   -1.3320 C   0  0
   -3.0120    1.8180   -1.2340 C   0  0
    0.7190    2.2010   -1.4590 N   0  0
   -1.8030    2.5510   -1.3420 C   0  0
    1.4840    1.0610   -1.4360 N   0  0
   -4.3010    2.5290   -1.2050 C   0  0
    1.2030    3.4670   -1.5550 C   0  0
    2.2320    3.7620   -2.4710 C   0  0
    0.6780    4.4900   -0.7400 C   0  0
    2.7340    5.0720   -2.5700 C   0  0
    1.1800    5.7990   -0.8420 C   0  0
    2.2090    6.0940   -1.7560 C   0  0
    2.6970    7.3690   -1.8540 N   0  0
    2.1210    8.4420   -1.0290 C   0  0  1  0  0  0
    3.0800    9.5900   -0.8650 C   0  0
    0.7660    8.8870   -1.5780 C   0  0
    2.8220   10.6840   -1.3130 O   0  0
    4.2540    9.3750   -0.2010 N   0  0
   -2.3460   -4.0960    1.1130 H   0  0
   -1.7330   -4.1990   -1.6700 H   0  0
   -3.3950   -2.1440   -0.1130 H   0  0
   -3.4830   -2.2690   -1.8480 H   0  0
   -3.3810   -5.8930   -1.1130 H   0  0
   -4.2950   -4.7680   -0.0900 H   0  0
   -4.3110   -4.5840   -1.8400 H   0  0
    1.2360   -8.2720    4.0200 H   0  0
   -0.3340   -8.4280    0.7710 H   0  0
   -1.4430   -8.3380    2.1390 H   0  0
    0.0510   -9.2600    2.2750 H   0  0
    2.0920   -4.0510    3.9280 H   0  0
    0.6500   -3.4360    0.6620 H   0  0
    1.3870   -2.7620    2.1130 H   0  0
   -0.3560   -3.0140    2.0450 H   0  0
   -0.7230   -2.0490   -1.1470 H   0  0
    3.0760   -5.3960    5.6500 H   0  0
    3.4220   -7.0330    5.0960 H   0  0
    2.0290   -6.7290    6.1310 H   0  0
   -3.9080   -0.1500   -1.0740 H   0  0
    1.1460   -1.1270   -1.2950 H   0  0
   -1.8130    3.6310   -1.4000 H   0  0
   -5.1700    1.8770   -1.1210 H   0  0
   -4.4100    3.1170   -2.1150 H   0  0
   -4.3170    3.2170   -0.3590 H   0  0
    2.6480    2.9900   -3.1040 H   0  0
   -0.1130    4.2830   -0.0330 H   0  0
    3.5230    5.2780   -3.2770 H   0  0
    0.7640    6.5700   -0.2070 H   0  0
    3.4450    7.5570   -2.4900 H   0  0
    2.0230    8.0900   -0.0020 H   0  0
    0.0600    8.0590   -1.6430 H   0  0
    0.8750    9.3090   -2.5780 H   0  0
    0.3240    9.6510   -0.9400 H   0  0
    4.9240   10.1060   -0.0650 H   0  0
    4.4650    8.4690    0.1660 H   0  0
  1  2  2  0
  1  3  2  0
  1  4  1  0
  1  5  1  0
  4  6  1  0
  5  7  2  0
  5  8  1  0
  6  9  1  0
  6 10  1  0
  7 11  1  0
  7 12  1  0
  8 13  2  0
  8 14  1  0
  9 15  1  0
 11 16  2  0
 15 17  1  0
 16 18  1  0
 17 19  2  0
 17 20  1  0
 19 21  1  0
 19 22  1  0
 20 23  2  0
 21 24  1  0
 21 25  2  0
 22 26  2  0
 23 27  1  0
 24 28  1  0
 28 29  2  0
 28 30  1  0
 29 31  1  0
 30 32  2  0
 31 33  2  0
 33 34  1  0
 34 35  1  0
 35 36  1  0
 35 37  1  0
 36 38  2  0
 36 39  1  0
 13 16  1  0
 23 25  1  0
 24 26  1  0
 32 33  1  0
  4 40  1  0
  6 41  1  0
  9 42  1  0
  9 43  1  0
 10 44  1  0
 10 45  1  0
 10 46  1  0
 11 47  1  0
 12 48  1  0
 12 49  1  0
 12 50  1  0
 13 51  1  0
 14 52  1  0
 14 53  1  0
 14 54  1  0
 15 55  1  0
 18 56  1  0
 18 57  1  0
 18 58  1  0
 20 59  1  0
 22 60  1  0
 25 61  1  0
 27 62  1  0
 27 63  1  0
 27 64  1  0
 29 65  1  0
 30 66  1  0
 31 67  1  0
 32 68  1  0
 34 69  1  0
 35 70  1  0
 37 71  1  0
 37 72  1  0
 37 73  1  0
 39 74  1  0
 39 75  1  0
M  END
> <Name>
CHEMBL1668075

> <IC50 nM>
25.12

> <Molecule_ChEMBL_ID>
CHEMBL1668075

> <Smiles>
Cc1cc(C)c(S(=O)(=O)N[C@@H](C)CNc2cc(C)cc3c2cnn3-c2ccc(N[C@H](C)C(N)=O)cc2)c(C)c1

$$$$
CHEMBL4795123
  SciTegic08162514323D

 72 75  0  0  1  0            999 V2000
   -3.0980   -4.6310   -4.4750 F   0  0
   -4.4470   -4.7700   -4.2680 C   0  0
   -5.1270   -3.9710   -5.1510 F   0  0
   -4.8090   -6.0760   -4.4630 F   0  0
   -4.7310   -4.3500   -2.8500 C   0  0
   -5.3190   -3.3200   -2.6110 O   0  0
   -4.3130   -5.1580   -1.8320 N   0  0
   -4.5820   -4.7640   -0.4410 C   0  0  2  0  0  0
   -3.4490   -3.8980    0.1130 C   0  0  2  0  0  0
   -4.8690   -5.9880    0.4300 C   0  0
   -3.3010   -2.7400   -0.6950 O   0  0
   -2.1640   -4.6430    0.1540 C   0  0
   -2.3610   -1.8770   -0.3710 C   0  0
   -1.7580   -5.2810    1.3400 C   0  0
   -1.3500   -4.7070   -0.9900 C   0  0
   -1.8260   -1.8590    0.9320 C   0  0
   -1.8790   -0.9590   -1.3200 C   0  0
   -0.5410   -5.9840    1.3790 C   0  0
   -0.1330   -5.4100   -0.9510 C   0  0
   -0.8540   -0.9730    1.2910 N   0  0
   -0.8750   -0.0510   -0.9410 C   0  0
    0.2730   -6.0490    0.2340 C   0  0
   -0.3770   -0.0780    0.3770 C   0  0
    1.5600   -6.7930    0.2770 C   0  0
    0.6870    0.8830    0.7870 C   0  0
    1.4390    0.6270    1.6970 O   0  0
    0.7990    2.0660    0.1110 N   0  0
    1.8480    3.0270    0.5060 C   0  0  2  0  0  0
    1.5270    4.4430   -0.0180 C   0  0
    3.2440    2.5410    0.0600 C   0  0
    2.5620    5.4180    0.4100 N   0  0
    4.2950    3.6720    0.0310 C   0  0
    2.2990    6.7620    0.3980 C   0  0
    3.8870    4.9120    0.8460 C   0  0
    1.2340    7.1700   -0.0020 O   0  0
    3.3590    7.7130    0.8960 C   0  0  2  0  0  0
    3.6910    7.5700    2.3890 C   0  0
    2.9550    9.1860    0.8630 C   0  0
    4.2250    8.8200    2.8200 O   0  0
    3.7420    9.7520    2.0080 C   0  0
    3.9100   10.9400    2.1460 O   0  0
   -3.8280   -6.0100   -2.0310 H   0  0
   -5.5310   -4.2310   -0.3970 H   0  0
   -3.7190   -3.5800    1.1190 H   0  0
   -4.0160   -6.6680    0.4300 H   0  0
   -5.0860   -5.6900    1.4550 H   0  0
   -5.7310   -6.5370    0.0510 H   0  0
   -2.3770   -5.2340    2.2230 H   0  0
   -1.6540   -4.2190   -1.9040 H   0  0
   -2.1940   -2.5610    1.6680 H   0  0
   -2.2720   -0.9510   -2.3260 H   0  0
   -0.2340   -6.4730    2.2930 H   0  0
    0.4880   -5.4550   -1.8340 H   0  0
   -0.4940    0.6600   -1.6600 H   0  0
    2.1150   -6.7810   -0.6600 H   0  0
    1.3690   -7.8340    0.5390 H   0  0
    2.2010   -6.3650    1.0490 H   0  0
    0.1740    2.2700   -0.6410 H   0  0
    1.8400    3.0680    1.5960 H   0  0
    0.5550    4.7740    0.3520 H   0  0
    1.4760    4.4490   -1.1070 H   0  0
    3.2050    2.0920   -0.9340 H   0  0
    3.5760    1.7500    0.7320 H   0  0
    5.2560    3.2950    0.3790 H   0  0
    4.4550    3.9770   -1.0040 H   0  0
    3.8320    4.6640    1.9060 H   0  0
    4.6430    5.6920    0.7380 H   0  0
    4.2620    7.5740    0.3180 H   0  0
    4.4040    6.7850    2.5900 H   0  0
    2.7990    7.3750    2.9690 H   0  0
    3.2150    9.6620   -0.0700 H   0  0
    1.8980    9.3280    1.0470 H   0  0
  1  2  1  0
  2  3  1  0
  2  4  1  0
  2  5  1  0
  5  6  2  0
  5  7  1  0
  7  8  1  0
  8  9  1  0
  8 10  1  0
  9 11  1  0
  9 12  1  0
 11 13  1  0
 12 14  2  0
 12 15  1  0
 13 16  2  0
 13 17  1  0
 14 18  1  0
 15 19  2  0
 16 20  1  0
 17 21  2  0
 18 22  2  0
 20 23  2  0
 22 24  1  0
 23 25  1  0
 25 26  2  0
 25 27  1  0
 28 27  1  0
 28 29  1  0
 28 30  1  0
 29 31  1  0
 30 32  1  0
 31 33  1  0
 31 34  1  0
 33 35  2  0
 36 33  1  0
 36 37  1  0
 36 38  1  0
 37 39  1  0
 38 40  1  0
 40 41  2  0
 19 22  1  0
 21 23  1  0
 32 34  1  0
 39 40  1  0
  7 42  1  0
  8 43  1  0
  9 44  1  0
 10 45  1  0
 10 46  1  0
 10 47  1  0
 14 48  1  0
 15 49  1  0
 16 50  1  0
 17 51  1  0
 18 52  1  0
 19 53  1  0
 21 54  1  0
 24 55  1  0
 24 56  1  0
 24 57  1  0
 27 58  1  0
 28 59  1  0
 29 60  1  0
 29 61  1  0
 30 62  1  0
 30 63  1  0
 32 64  1  0
 32 65  1  0
 34 66  1  0
 34 67  1  0
 36 68  1  0
 37 69  1  0
 37 70  1  0
 38 71  1  0
 38 72  1  0
M  END
> <Name>
CHEMBL4795123

> <IC50 nM>
8

> <Molecule_ChEMBL_ID>
CHEMBL4795123

> <Smiles>
Cc1ccc([C@@H](Oc2ccc(C(=O)N[C@H]3CCCN(C(=O)[C@@H]4COC(=O)C4)C3)nc2)[C@H](C)NC(=O)C(F)(F)F)cc1

$$$$
CHEMBL1257343
  SciTegic08162514323D

 55 57  0  0  1  0            999 V2000
   -6.1070   -0.7580   -0.4380 F   0  0
   -5.0450   -1.5550   -0.5200 C   0  0
   -3.8510   -1.2070    0.1370 C   0  0
   -5.1130   -2.7460   -1.2620 C   0  0
   -2.7260   -2.0490    0.0510 C   0  0
   -3.9920   -3.5860   -1.3480 C   0  0
   -2.7970   -3.2420   -0.6930 C   0  0
   -1.4710   -1.6700    0.7500 C   0  0
   -1.7500   -4.0390   -0.7810 O   0  0
   -0.7810   -1.1700   -0.5200 C   0  0
   -0.7750   -2.8890    1.3570 C   0  0
   -1.7070   -0.5570    1.7700 C   0  0
   -1.9000   -5.2620   -1.4860 C   0  0
    0.5740   -0.5220   -0.2400 C   0  0  1  0  0  0
    1.1540   -1.1740    0.8670 O   0  0
    1.4490   -0.7930   -1.4650 C   0  0
    0.4610    0.9670    0.0860 C   0  0
    0.9340   -0.1310   -2.5490 F   0  0
    1.4730   -2.1390   -1.7210 F   0  0
    2.7250   -0.3500   -1.2230 F   0  0
    1.7760    1.5390    0.4100 N   0  0
    1.9510    2.8730    0.3960 C   0  0
    3.2460    3.4880    0.3810 C   0  0
    0.7990    3.6990    0.3950 C   0  0
    3.3600    4.9220    0.3670 C   0  0
    4.4490    2.7190    0.3810 C   0  0
    0.9140    5.1060    0.3810 C   0  0
    4.6000    5.5350    0.3550 N   0  0
    2.1880    5.7150    0.3670 C   0  0
    5.7070    3.3690    0.3670 C   0  0
    5.7520    4.7810    0.3530 C   0  0
   -3.7990   -0.2890    0.7090 H   0  0
   -6.0290   -3.0180   -1.7700 H   0  0
   -4.0510   -4.5000   -1.9200 H   0  0
   -1.4300   -0.4860   -1.0660 H   0  0
   -0.6800   -1.9790   -1.2460 H   0  0
   -1.4880   -3.6620    1.6450 H   0  0
   -0.2130   -2.6070    2.2480 H   0  0
   -0.0760   -3.3280    0.6460 H   0  0
   -2.4920   -0.8150    2.4800 H   0  0
   -2.0000    0.3670    1.2710 H   0  0
   -0.7990   -0.3540    2.3380 H   0  0
   -2.6560   -5.8610   -0.9770 H   0  0
   -2.0960   -5.0310   -2.5330 H   0  0
   -0.9570   -5.8050   -1.4360 H   0  0
    1.0720   -0.5740    1.6270 H   0  0
   -0.2170    1.1270    0.9260 H   0  0
    0.0290    1.5140   -0.7520 H   0  0
    2.5390    0.9360    0.6410 H   0  0
   -0.1930    3.2680    0.4040 H   0  0
    4.4320    1.6390    0.3910 H   0  0
    0.0260    5.7190    0.3810 H   0  0
    2.2480    6.7930    0.3570 H   0  0
    6.6190    2.7930    0.3650 H   0  0
    6.7110    5.2790    0.3440 H   0  0
  1  2  1  0
  2  3  2  0
  2  4  1  0
  3  5  1  0
  4  6  2  0
  5  7  2  0
  5  8  1  0
  7  9  1  0
  8 10  1  0
  8 11  1  0
  8 12  1  0
  9 13  1  0
 10 14  1  0
 14 15  1  0
 14 16  1  0
 14 17  1  0
 16 18  1  0
 16 19  1  0
 16 20  1  0
 17 21  1  0
 21 22  1  0
 22 23  2  0
 22 24  1  0
 23 25  1  0
 23 26  1  0
 24 27  2  0
 25 28  1  0
 25 29  2  0
 26 30  2  0
 28 31  2  0
  6  7  1  0
 27 29  1  0
 30 31  1  0
  3 32  1  0
  4 33  1  0
  6 34  1  0
 10 35  1  0
 10 36  1  0
 11 37  1  0
 11 38  1  0
 11 39  1  0
 12 40  1  0
 12 41  1  0
 12 42  1  0
 13 43  1  0
 13 44  1  0
 13 45  1  0
 15 46  1  0
 17 47  1  0
 17 48  1  0
 21 49  1  0
 24 50  1  0
 26 51  1  0
 27 52  1  0
 29 53  1  0
 30 54  1  0
 31 55  1  0
M  END
> <Name>
CHEMBL1257343

> <IC50 nM>
19.95

> <Molecule_ChEMBL_ID>
CHEMBL1257343

> <Smiles>
COc1ccc(F)cc1C(C)(C)CC(O)(CNc1cccc2ncccc12)C(F)(F)F

$$$$
CHEMBL1911647
  SciTegic08162514323D

 55 57  0  0  1  0            999 V2000
    6.4140    0.6600    2.9840 F   0  0
    5.7190    0.4450    1.8690 C   0  0
    4.4340   -0.1230    1.9390 C   0  0
    6.2680    0.7870    0.6210 C   0  0
    3.6990   -0.3500    0.7640 C   0  0
    5.5310    0.5600   -0.5550 C   0  0
    4.2480   -0.0080   -0.4880 C   0  0
    2.3420   -0.9510    0.8500 C   0  0
    3.5660   -0.2150   -1.5980 O   0  0
    1.6170    0.3940    0.7750 C   0  0
    2.1250   -1.6640    2.1850 C   0  0
    2.0450   -1.8480   -0.3540 C   0  0
    4.1620    0.1740   -2.8280 C   0  0
    0.0980    0.2420    0.7010 C   0  0  1  0  0  0
   -0.2320   -1.0820    1.0530 O   0  0
   -0.4860    1.1780    1.7620 C   0  0
   -0.4570    0.5190   -0.6970 C   0  0
   -1.8340    0.9610    1.8710 F   0  0
   -0.2600    2.4800    1.3980 F   0  0
    0.1150    0.9300    2.9690 F   0  0
   -1.9710    0.4940   -0.7010 C   0  0
   -2.7680    1.6620   -0.7770 N   0  0
   -2.8240   -0.6230   -0.6370 C   0  0
   -4.0920    1.2500   -0.7580 C   0  0
   -4.0760   -0.1190   -0.6740 C   0  0
   -5.3050    1.9750   -0.8090 C   0  0
   -5.2770   -0.8670   -0.6350 C   0  0
   -6.5240    1.2520   -0.7700 C   0  0
   -6.5140   -0.1680   -0.6820 C   0  0
   -7.7810   -0.9120   -0.6430 C   0  0
    4.0140   -0.3850    2.9000 H   0  0
    7.2540    1.2230    0.5620 H   0  0
    5.9570    0.8240   -1.5120 H   0  0
    1.9860    0.9840   -0.0650 H   0  0
    1.9000    1.0310    1.6110 H   0  0
    3.0210   -2.1900    2.5140 H   0  0
    1.3180   -2.3930    2.1050 H   0  0
    1.8540   -0.9490    2.9630 H   0  0
    1.3180   -2.6230   -0.1110 H   0  0
    2.9530   -2.3400   -0.6990 H   0  0
    1.6460   -1.2620   -1.1820 H   0  0
    4.3140    1.2520   -2.8070 H   0  0
    5.0510   -0.4380   -2.9850 H   0  0
    3.4590   -0.0490   -3.6310 H   0  0
   -0.4530   -1.5490    0.2300 H   0  0
   -0.0780   -0.2110   -1.4120 H   0  0
   -0.1070    1.4840   -1.0650 H   0  0
   -2.4400    2.6000   -0.8320 H   0  0
   -2.5330   -1.6640   -0.5720 H   0  0
   -5.3050    3.0530   -0.8750 H   0  0
   -5.2600   -1.9470   -0.5680 H   0  0
   -7.4630    1.7870   -0.8070 H   0  0
   -7.6640   -1.9920   -0.5680 H   0  0
   -8.3560   -0.6990   -1.5430 H   0  0
   -8.3690   -0.5800    0.2130 H   0  0
  1  2  1  0
  2  3  2  0
  2  4  1  0
  3  5  1  0
  4  6  2  0
  5  7  2  0
  5  8  1  0
  7  9  1  0
  8 10  1  0
  8 11  1  0
  8 12  1  0
  9 13  1  0
 10 14  1  0
 14 15  1  0
 14 16  1  0
 14 17  1  0
 16 18  1  0
 16 19  1  0
 16 20  1  0
 17 21  1  0
 21 22  1  0
 21 23  2  0
 22 24  1  0
 23 25  1  0
 24 26  1  0
 25 27  1  0
 26 28  2  0
 27 29  2  0
 29 30  1  0
  6  7  1  0
 24 25  2  0
 28 29  1  0
  3 31  1  0
  4 32  1  0
  6 33  1  0
 10 34  1  0
 10 35  1  0
 11 36  1  0
 11 37  1  0
 11 38  1  0
 12 39  1  0
 12 40  1  0
 12 41  1  0
 13 42  1  0
 13 43  1  0
 13 44  1  0
 15 45  1  0
 17 46  1  0
 17 47  1  0
 22 48  1  0
 23 49  1  0
 26 50  1  0
 27 51  1  0
 28 52  1  0
 30 53  1  0
 30 54  1  0
 30 55  1  0
M  END
> <Name>
CHEMBL1911647

> <IC50 nM>
66

> <Molecule_ChEMBL_ID>
CHEMBL1911647

> <Smiles>
COc1ccc(F)cc1C(C)(C)CC(O)(Cc1cc2cc(C)ccc2[nH]1)C(F)(F)F

$$$$
CHEMBL1911656
  SciTegic08162514323D

 53 56  0  0  1  0            999 V2000
    1.5370    4.0840   -1.3960 F   0  0
    0.4570    3.3220   -1.5370 C   0  0
    0.5330    1.9340   -1.3090 C   0  0
   -0.7750    3.8930   -1.9140 C   0  0
   -0.6250    1.1390   -1.4610 C   0  0
   -1.9340    3.0900   -2.0660 C   0  0
   -1.8730    1.7050   -1.8420 C   0  0
   -0.5410   -0.3110   -1.2210 C   0  0
   -3.3440    3.4550   -2.4550 C   0  0
   -3.0510    1.1110   -2.0290 O   0  0
    0.9100   -0.7870   -1.1700 C   0  0
   -1.3870   -1.0980   -2.2230 C   0  0
   -1.1850   -0.2320    0.1640 C   0  0
   -4.0510    2.0680   -2.4120 C   0  0
    1.0290   -2.2870   -0.9000 C   0  0  1  0  0  0
   -0.2010   -2.7400   -0.3810 O   0  0
    1.2520   -2.9590   -2.2560 C   0  0
    2.1270   -2.6210    0.1090 C   0  0
    0.6290   -4.1800   -2.2700 F   0  0
    2.5960   -3.1290   -2.4670 F   0  0
    0.7290   -2.1680   -3.2480 F   0  0
    1.9490   -1.8360    1.3930 C   0  0
    1.2190   -2.3200    2.5060 N   0  0
    2.4420   -0.5570    1.7090 C   0  0
    1.2740   -1.3400    3.4830 C   0  0
    2.0120   -0.3070    2.9650 C   0  0
    0.7290   -1.2790    4.7870 C   0  0
    2.2640    0.8670    3.7150 C   0  0
    0.9630   -0.1130    5.5610 C   0  0
    1.7290    0.9570    5.0270 C   0  0
    1.4710    1.4820   -1.0180 H   0  0
   -0.8420    4.9570   -2.0920 H   0  0
   -3.3690    3.8950   -3.4410 H   0  0
   -3.7700    4.1500   -1.7440 H   0  0
    1.4790   -0.2190   -0.4340 H   0  0
    1.4380   -0.5180   -2.0860 H   0  0
   -2.4510   -1.0180   -2.0060 H   0  0
   -1.1210   -2.1540   -2.2030 H   0  0
   -1.2250   -0.7310   -3.2360 H   0  0
   -1.9370    0.5550    0.1950 H   0  0
   -1.6520   -1.1820    0.4240 H   0  0
   -0.4370   -0.0100    0.9260 H   0  0
   -4.8520    2.0450   -1.6870 H   0  0
   -4.4510    1.7890   -3.3770 H   0  0
   -0.1870   -2.5700    0.5740 H   0  0
    3.1110   -2.4140   -0.3090 H   0  0
    2.1350   -3.6880    0.3340 H   0  0
    0.7540   -3.1970    2.5720 H   0  0
    3.0390    0.0860    1.0740 H   0  0
    0.1490   -2.1000    5.1840 H   0  0
    2.8460    1.6800    3.3070 H   0  0
    0.5570   -0.0410    6.5610 H   0  0
    1.9040    1.8440    5.6190 H   0  0
  1  2  1  0
  2  3  2  0
  2  4  1  0
  3  5  1  0
  4  6  2  0
  5  7  2  0
  5  8  1  0
  6  9  1  0
  7 10  1  0
  8 11  1  0
  8 12  1  0
  8 13  1  0
  9 14  1  0
 11 15  1  0
 15 16  1  0
 15 17  1  0
 15 18  1  0
 17 19  1  0
 17 20  1  0
 17 21  1  0
 18 22  1  0
 22 23  1  0
 22 24  2  0
 23 25  1  0
 24 26  1  0
 25 27  1  0
 26 28  1  0
 27 29  2  0
 28 30  2  0
  6  7  1  0
 10 14  1  0
 25 26  2  0
 29 30  1  0
  3 31  1  0
  4 32  1  0
  9 33  1  0
  9 34  1  0
 11 35  1  0
 11 36  1  0
 12 37  1  0
 12 38  1  0
 12 39  1  0
 13 40  1  0
 13 41  1  0
 13 42  1  0
 14 43  1  0
 14 44  1  0
 16 45  1  0
 18 46  1  0
 18 47  1  0
 23 48  1  0
 24 49  1  0
 27 50  1  0
 28 51  1  0
 29 52  1  0
 30 53  1  0
M  END
> <Name>
CHEMBL1911656

> <IC50 nM>
8

> <Molecule_ChEMBL_ID>
CHEMBL1911656

> <Smiles>
CC(C)(CC(O)(Cc1cc2ccccc2[nH]1)C(F)(F)F)c1cc(F)cc2c1OCC2

$$$$
CHEMBL70574
  SciTegic08162514323D

 54 56  0  0  0  0            999 V2000
    0.7500   -2.3550    3.4380 S   0  0
   -0.3140   -1.7050    4.1820 O   0  0
    0.3730   -3.6600    2.9220 O   0  0
    1.1020   -1.4140    2.1680 N   0  0
    2.1700   -2.5470    4.5060 C   0  0
    0.1430   -1.1500    1.2210 C   0  0
    0.4240   -0.3420    0.0940 C   0  0
   -1.1430   -1.7030    1.3850 C   0  0
   -0.5920   -0.0940   -0.8590 C   0  0
    1.7850    0.2480   -0.0880 C   0  0
   -2.1450   -1.4550    0.4380 C   0  0
   -0.3570    0.6860   -1.9650 N   0  0
   -1.8730   -0.6520   -0.6820 C   0  0
   -0.1460    2.1350   -1.8380 C   0  0
   -0.3160    0.0720   -3.3010 C   0  0
   -0.7190    2.6620   -0.5720 C   0  0
    0.4730   -1.1870   -3.3010 C   0  0
    0.1330    3.1470    0.4380 C   0  0
   -2.1110    2.6800   -0.3810 C   0  0
   -0.1840   -2.4300   -3.3010 C   0  0
    1.8790   -1.1370   -3.3010 C   0  0
   -0.4080    3.6470    1.6350 C   0  0
   -2.6520    3.1780    0.8170 C   0  0
    0.5630   -3.6210   -3.3010 C   0  0
    2.6250   -2.3280   -3.3010 C   0  0
   -1.8030    3.6620    1.8260 C   0  0
    1.9670   -3.5700   -3.3010 C   0  0
   -2.3750    4.1920    3.0920 C   0  0
    2.0180   -1.0230    2.0720 H   0  0
    1.9940   -3.1720    5.3810 H   0  0
    2.4940   -1.5660    4.8580 H   0  0
    2.9920   -2.9860    3.9440 H   0  0
   -1.3750   -2.3240    2.2400 H   0  0
    1.9430    0.7230   -1.0570 H   0  0
    2.5390   -0.5310    0.0290 H   0  0
    1.9630    0.9980    0.6840 H   0  0
   -3.1290   -1.8810    0.5680 H   0  0
   -2.6620   -0.4750   -1.4000 H   0  0
    0.9240    2.3440   -1.8690 H   0  0
   -0.6090    2.6410   -2.6850 H   0  0
    0.1250    0.7790   -4.0040 H   0  0
   -1.3340   -0.1370   -3.6310 H   0  0
    1.2030    3.1370    0.2990 H   0  0
   -2.7720    2.3090   -1.1520 H   0  0
   -1.2640   -2.4770   -3.3010 H   0  0
    2.3910   -0.1860   -3.3010 H   0  0
    0.2500    4.0160    2.4060 H   0  0
   -3.7250    3.1880    0.9550 H   0  0
    0.0570   -4.5740   -3.3010 H   0  0
    3.7050   -2.2890   -3.3010 H   0  0
    2.5410   -4.4840   -3.3010 H   0  0
   -3.4610    4.1310    3.0530 H   0  0
   -1.9530    3.6450    3.9380 H   0  0
   -2.1020    5.2400    3.2030 H   0  0
  1  2  2  0
  1  3  2  0
  1  4  1  0
  1  5  1  0
  4  6  1  0
  6  7  2  0
  6  8  1  0
  7  9  1  0
  7 10  1  0
  8 11  2  0
  9 12  1  0
  9 13  2  0
 12 14  1  0
 12 15  1  0
 14 16  1  0
 15 17  1  0
 16 18  2  0
 16 19  1  0
 17 20  2  0
 17 21  1  0
 18 22  1  0
 19 23  2  0
 20 24  1  0
 21 25  2  0
 22 26  2  0
 24 27  2  0
 26 28  1  0
 11 13  1  0
 23 26  1  0
 25 27  1  0
  4 29  1  0
  5 30  1  0
  5 31  1  0
  5 32  1  0
  8 33  1  0
 10 34  1  0
 10 35  1  0
 10 36  1  0
 11 37  1  0
 13 38  1  0
 14 39  1  0
 14 40  1  0
 15 41  1  0
 15 42  1  0
 18 43  1  0
 19 44  1  0
 20 45  1  0
 21 46  1  0
 22 47  1  0
 23 48  1  0
 24 49  1  0
 25 50  1  0
 27 51  1  0
 28 52  1  0
 28 53  1  0
 28 54  1  0
M  END
> <Name>
CHEMBL70574

> <IC50 nM>
58

> <Molecule_ChEMBL_ID>
CHEMBL70574

> <Smiles>
Cc1ccc(CN(Cc2ccccc2)c2cccc(NS(C)(=O)=O)c2C)cc1

$$$$
CHEMBL63932
  SciTegic08162514323D

 55 58  0  0  1  0            999 V2000
   -2.4120    4.9800   -1.6700 S   0  0
   -2.0820    5.1460   -0.2660 O   0  0
   -1.4550    5.6110   -2.5630 O   0  0
   -2.4020    3.3910   -1.9880 N   0  0
   -4.0290    5.6820   -1.9710 C   0  0
   -1.2760    2.6840   -1.8260 C   0  0
   -1.2540    1.2950   -2.1000 C   0  0
   -0.0900    3.3120   -1.3770 C   0  0
   -0.0670    0.5390   -1.9240 C   0  0
    1.1010    2.5700   -1.2090 C   0  0
    1.1290    1.1720   -1.4710 C   0  0
   -0.0720   -0.9240   -2.2050 C   0  0  1  0  0  0
    2.3500    0.3360   -1.3130 C   0  0
    1.2320   -1.4300   -2.5290 O   0  0
   -0.6150   -1.6640   -1.0350 C   0  0
    2.3380   -0.9590   -1.9140 C   0  0
    3.5270    0.7500   -0.6090 C   0  0
   -1.7050   -2.5370   -1.1990 C   0  0
   -0.0390   -1.4900    0.2340 C   0  0
    3.4880   -1.7790   -1.8870 C   0  0
    3.6050    1.9140    0.0510 O   0  0
    4.6660   -0.0880   -0.5780 C   0  0
   -2.2170   -3.2360   -0.0920 C   0  0
   -0.5510   -2.1920    1.3420 C   0  0
    4.6520   -1.3440   -1.2210 C   0  0
    4.8260    2.2280    0.7030 C   0  0
   -1.6410   -3.0650    1.1800 C   0  0
   -2.1860   -3.8090    2.3530 C   0  0
   -3.1230   -4.5630    2.2320 O   0  0
   -1.5680   -3.5720    3.5080 O   0  0
   -2.1350   -4.3090    4.5820 C   0  0
   -1.3790   -3.9900    5.8730 C   0  0
   -3.2350    2.9390   -2.3070 H   0  0
   -4.0980    6.7500   -1.7740 H   0  0
   -4.7660    5.1780   -1.3440 H   0  0
   -4.3110    5.5160   -3.0100 H   0  0
   -2.1490    0.7950   -2.4450 H   0  0
   -0.0780    4.3730   -1.1600 H   0  0
    1.9670    3.1230   -0.8830 H   0  0
   -0.7170   -1.1370   -3.0610 H   0  0
   -2.1520   -2.6740   -2.1720 H   0  0
    0.7990   -0.8200    0.3670 H   0  0
    3.4750   -2.7420   -2.3730 H   0  0
    5.5570    0.2340   -0.0570 H   0  0
   -3.0550   -3.9060   -0.2290 H   0  0
   -0.1020   -2.0510    2.3140 H   0  0
    5.5310   -1.9710   -1.2010 H   0  0
    4.8690    3.1860    1.2230 H   0  0
    5.6230    2.2190   -0.0410 H   0  0
    5.0370    1.4450    1.4300 H   0  0
   -3.1840   -4.0290    4.6740 H   0  0
   -2.0610   -5.3710    4.3460 H   0  0
   -1.7970   -4.5450    6.7130 H   0  0
   -0.3220   -4.2420    5.7720 H   0  0
   -1.4470   -2.9280    6.1070 H   0  0
  1  2  2  0
  1  3  2  0
  1  4  1  0
  1  5  1  0
  4  6  1  0
  6  7  2  0
  6  8  1  0
  7  9  1  0
  8 10  2  0
  9 11  2  0
  9 12  1  0
 11 13  1  0
 12 14  1  0
 12 15  1  0
 13 16  2  0
 13 17  1  0
 15 18  2  0
 15 19  1  0
 16 20  1  0
 17 21  1  0
 17 22  2  0
 18 23  1  0
 19 24  2  0
 20 25  2  0
 21 26  1  0
 23 27  2  0
 27 28  1  0
 28 29  2  0
 28 30  1  0
 30 31  1  0
 31 32  1  0
 10 11  1  0
 14 16  1  0
 22 25  1  0
 24 27  1  0
  4 33  1  0
  5 34  1  0
  5 35  1  0
  5 36  1  0
  7 37  1  0
  8 38  1  0
 10 39  1  0
 12 40  1  0
 18 41  1  0
 19 42  1  0
 20 43  1  0
 22 44  1  0
 23 45  1  0
 24 46  1  0
 25 47  1  0
 26 48  1  0
 26 49  1  0
 26 50  1  0
 31 51  1  0
 31 52  1  0
 32 53  1  0
 32 54  1  0
 32 55  1  0
M  END
> <Name>
CHEMBL63932

> <IC50 nM>
61

> <Molecule_ChEMBL_ID>
CHEMBL63932

> <Smiles>
CCOC(=O)c1ccc(C2Oc3cccc(OC)c3-c3ccc(NS(C)(=O)=O)cc32)cc1

$$$$
CHEMBL312041
  SciTegic08162514323D

 50 53  0  0  1  0            999 V2000
   -4.9060    6.1740   -0.4670 F   0  0
   -4.4400    4.9300   -0.3870 C   0  0
   -5.1270    3.9650    0.3690 C   0  0
   -3.2560    4.5780   -1.0610 C   0  0
   -4.6350    2.6520    0.4530 C   0  0
   -2.7620    3.2660   -0.9780 C   0  0
   -3.4490    2.2990   -0.2210 C   0  0
   -2.9730    1.0290   -0.1410 N   0  0
   -3.7340   -0.0940   -0.2480 N   0  0
   -1.6740    0.6800    0.0530 C   0  0
   -3.0180   -1.2420   -0.1250 C   0  0
   -1.7480   -0.7030    0.0720 C   0  0
   -0.4320    1.4570    0.2190 C   0  0
   -0.4650   -1.4860    0.3260 C   0  0
    0.7480    0.7970    0.1990 C   0  0
    0.8180   -0.7070   -0.1150 C   0  0  1  0  0  0
    2.0410    1.5350    0.4730 C   0  0
    2.0700   -1.3070    0.5760 C   0  0  1  0  0  0
    0.9590   -0.8380   -1.6410 C   0  0
    3.2290    0.8650   -0.2270 C   0  0
    2.1780   -2.8260    0.3930 C   0  0
    3.3910   -0.6150    0.1620 C   0  0
    1.8280   -3.1350   -0.9370 O   0  0
    3.6210   -3.3260    0.4510 C   0  0
    1.2460   -3.6000    1.3240 C   0  0
   -6.0370    4.2300    0.8890 H   0  0
   -2.7230    5.3160   -1.6450 H   0  0
   -5.1800    1.9240    1.0390 H   0  0
   -1.8500    3.0160   -1.5040 H   0  0
   -3.3750   -2.2620   -0.1700 H   0  0
   -0.4690    2.5290    0.3560 H   0  0
   -0.5210   -2.4570   -0.1720 H   0  0
   -0.4240   -1.6930    1.3970 H   0  0
    1.9590    2.5700    0.1370 H   0  0
    2.2130    1.5660    1.5510 H   0  0
    1.9490   -1.1350    1.6470 H   0  0
    1.9980   -0.9690   -1.9410 H   0  0
    0.5760    0.0510   -2.1410 H   0  0
    0.3950   -1.6950   -2.0080 H   0  0
    4.1500    1.4080   -0.0160 H   0  0
    3.0780    0.9350   -1.3050 H   0  0
    4.1040   -0.7010    0.9820 H   0  0
    3.8440   -1.1410   -0.6820 H   0  0
    1.7950   -4.1020   -1.0080 H   0  0
    3.6720   -4.4100    0.5530 H   0  0
    4.1470   -2.8890    1.3010 H   0  0
    4.1620   -3.0510   -0.4530 H   0  0
    1.7320   -4.5060    1.6900 H   0  0
    0.9550   -2.9840    2.1760 H   0  0
    0.3380   -3.8970    0.8030 H   0  0
  1  2  1  0
  2  3  2  0
  2  4  1  0
  3  5  1  0
  4  6  2  0
  5  7  2  0
  7  8  1  0
  8  9  1  0
  8 10  1  0
  9 11  2  0
 10 12  2  0
 10 13  1  0
 12 14  1  0
 13 15  2  0
 14 16  1  0
 15 17  1  0
 16 18  1  0
 16 19  1  0
 17 20  1  0
 18 21  1  0
 18 22  1  0
 21 23  1  0
 21 24  1  0
 21 25  1  0
  6  7  1  0
 11 12  1  0
 15 16  1  0
 20 22  1  0
  3 26  1  0
  4 27  1  0
  5 28  1  0
  6 29  1  0
 11 30  1  0
 13 31  1  0
 14 32  1  0
 14 33  1  0
 17 34  1  0
 17 35  1  0
 18 36  1  0
 19 37  1  0
 19 38  1  0
 19 39  1  0
 20 40  1  0
 20 41  1  0
 22 42  1  0
 22 43  1  0
 23 44  1  0
 24 45  1  0
 24 46  1  0
 24 47  1  0
 25 48  1  0
 25 49  1  0
 25 50  1  0
M  END
> <Name>
CHEMBL312041

> <IC50 nM>
1.9

> <Molecule_ChEMBL_ID>
CHEMBL312041

> <Smiles>
CC(C)(O)[C@H]1CCCC2=Cc3c(cnn3-c3ccc(F)cc3)C[C@@]21C

$$$$
CHEMBL1929040
  SciTegic08162514323D

 41 44  0  0  0  0            999 V2000
   -1.5530   -2.5530    2.2310 F   0  0
   -1.6740   -1.4120    1.5570 C   0  0
   -2.9630   -0.8930    1.2560 C   0  0
   -0.5120   -0.7210    1.1390 C   0  0
   -4.0570   -1.5720    1.6620 O   0  0
   -3.0980    0.3380    0.5430 C   0  0
   -0.6740    0.4860    0.4280 C   0  0
   -5.3420   -1.2970    1.0900 C   0  0
   -4.3300    0.8400    0.2870 N   0  0
   -1.9360    1.0350    0.1190 C   0  0
    0.5390    1.2130   -0.0140 C   0  0
   -5.4710    0.1150    0.5510 C   0  0
    1.6580    0.7090   -0.5700 N   0  0
    0.6430    2.6080    0.1190 C   0  0
   -6.5610    0.5980    0.3480 O   0  0
    2.4750    1.7460   -0.7990 N   0  0
    1.9300   -0.5900   -0.8570 C   0  0
    1.9200    2.9200   -0.4020 C   0  0
    3.0660   -1.2360   -0.3180 C   0  0
    1.0610   -1.3050   -1.7050 C   0  0
    2.6000    4.2640   -0.5310 C   0  0
    3.3200   -2.5840   -0.6350 C   0  0
    4.0160   -0.5210    0.5840 C   0  0
    1.3200   -2.6480   -2.0160 C   0  0
    2.8730    4.5160   -1.8520 F   0  0
    3.7700    4.2540    0.1840 F   0  0
    1.7730    5.2440   -0.0410 F   0  0
    2.4490   -3.2890   -1.4800 C   0  0
    2.6930   -4.5640   -1.7750 F   0  0
    0.4710   -1.1090    1.3610 H   0  0
   -5.5000   -2.0000    0.2720 H   0  0
   -6.1040   -1.4940    1.8420 H   0  0
   -4.4280    1.7600   -0.0980 H   0  0
   -2.0040    1.9670   -0.4280 H   0  0
   -0.0840    3.2970    0.5270 H   0  0
    0.1840   -0.8320   -2.1290 H   0  0
    4.1900   -3.0800   -0.2250 H   0  0
    4.6450   -1.2480    1.0980 H   0  0
    4.5920    0.2010    0.0060 H   0  0
    3.4550    0.0250    1.3400 H   0  0
    0.6460   -3.1880   -2.6680 H   0  0
  1  2  1  0
  2  3  2  0
  2  4  1  0
  3  5  1  0
  3  6  1  0
  4  7  2  0
  5  8  1  0
  6  9  1  0
  6 10  2  0
  7 11  1  0
  8 12  1  0
 11 13  1  0
 11 14  2  0
 12 15  2  0
 13 16  1  0
 13 17  1  0
 14 18  1  0
 17 19  2  0
 17 20  1  0
 18 21  1  0
 19 22  1  0
 19 23  1  0
 20 24  2  0
 21 25  1  0
 21 26  1  0
 21 27  1  0
 22 28  2  0
 28 29  1  0
  7 10  1  0
  9 12  1  0
 16 18  2  0
 24 28  1  0
  4 30  1  0
  8 31  1  0
  8 32  1  0
  9 33  1  0
 10 34  1  0
 14 35  1  0
 20 36  1  0
 22 37  1  0
 23 38  1  0
 23 39  1  0
 23 40  1  0
 24 41  1  0
M  END
> <Name>
CHEMBL1929040

> <IC50 nM>
1700

> <Molecule_ChEMBL_ID>
CHEMBL1929040

> <Smiles>
Cc1cc(F)ccc1-n1nc(C(F)(F)F)cc1-c1cc(F)c2c(c1)NC(=O)CO2

$$$$
CHEMBL2087290
  SciTegic08162514323D

 57 60  0  0  0  0            999 V2000
    2.7850    2.8300    0.3890 Br  0  0
    0.9490    2.3650    0.4730 C   0  0
    0.2850    1.6230   -0.5450 C   0  0
    0.2320    2.7850    1.6090 C   0  0
    0.9770    1.2050   -1.6620 N   0  0
   -1.0960    1.3200   -0.3990 C   0  0
   -1.1290    2.4820    1.7460 C   0  0
    0.8320    1.9040   -2.9470 C   0  0
    1.8730    0.0430   -1.5800 C   0  0
   -2.0840    0.3400   -1.6880 Br  0  0
   -1.7890    1.7540    0.7460 C   0  0
   -1.8730    2.9360    2.9510 C   0  0
    0.6700    3.3690   -2.7580 C   0  0
    1.3260   -1.0060   -0.6800 C   0  0
   -2.1580    1.8010    3.8980 C   0  0
   -0.6070    3.9120   -2.5270 C   0  0
    1.7910    4.2150   -2.8110 C   0  0
    1.5820   -0.9510    0.7010 C   0  0
    0.5550   -2.0550   -1.2090 C   0  0
   -1.3220    0.9610    4.1350 O   0  0
   -3.3750    1.8050    4.4360 O   0  0
   -0.7620    5.2970   -2.3500 C   0  0
    1.6390    5.6020   -2.6310 C   0  0
    1.0660   -1.9430    1.5510 C   0  0
    0.0390   -3.0470   -0.3580 C   0  0
   -1.9710    5.8110   -2.1330 F   0  0
    0.3610    6.1430   -2.4010 C   0  0
    2.7010    6.4000   -2.6800 F   0  0
    0.2930   -2.9940    1.0250 C   0  0
   -0.1910   -3.9240    1.8220 O   0  0
   -0.2210   -5.1660    1.3790 C   0  0
   -1.3280   -6.0040    1.6370 C   0  0
    0.8690   -5.6600    0.6410 C   0  0
   -2.6760   -5.4300    2.5330 Cl  0  0
   -1.3320   -7.3260    1.1520 C   0  0
    0.8590   -6.9810    0.1580 C   0  0
   -0.2400   -7.8130    0.4140 C   0  0
    0.7230    3.3480    2.3910 H   0  0
   -0.0350    1.5080   -3.4770 H   0  0
    1.7130    1.7130   -3.5610 H   0  0
    2.8460    0.3670   -1.2110 H   0  0
    2.0160   -0.3710   -2.5780 H   0  0
   -2.8400    1.5310    0.8710 H   0  0
   -1.3030    3.7090    3.4610 H   0  0
   -2.8090    3.4060    2.6440 H   0  0
   -1.4710    3.2640   -2.4850 H   0  0
    2.7730    3.8010   -2.9900 H   0  0
    2.1760   -0.1490    1.1150 H   0  0
    0.3530   -2.1040   -2.2700 H   0  0
   -3.6230    1.1030    5.0530 H   0  0
    1.2640   -1.8990    2.6110 H   0  0
   -0.5550   -3.8500   -0.7680 H   0  0
    0.2420    7.2070   -2.2640 H   0  0
    1.7210   -5.0260    0.4430 H   0  0
   -2.1720   -7.9810    1.3420 H   0  0
    1.6990   -7.3540   -0.4080 H   0  0
   -0.2480   -8.8260    0.0430 H   0  0
  1  2  1  0
  2  3  2  0
  2  4  1  0
  3  5  1  0
  3  6  1  0
  4  7  2  0
  5  8  1  0
  5  9  1  0
  6 10  1  0
  6 11  2  0
  7 12  1  0
  8 13  1  0
  9 14  1  0
 12 15  1  0
 13 16  2  0
 13 17  1  0
 14 18  2  0
 14 19  1  0
 15 20  2  0
 15 21  1  0
 16 22  1  0
 17 23  2  0
 18 24  1  0
 19 25  2  0
 22 26  1  0
 22 27  2  0
 23 28  1  0
 24 29  2  0
 29 30  1  0
 30 31  1  0
 31 32  2  0
 31 33  1  0
 32 34  1  0
 32 35  1  0
 33 36  2  0
 35 37  2  0
  7 11  1  0
 23 27  1  0
 25 29  1  0
 36 37  1  0
  4 38  1  0
  8 39  1  0
  8 40  1  0
  9 41  1  0
  9 42  1  0
 11 43  1  0
 12 44  1  0
 12 45  1  0
 16 46  1  0
 17 47  1  0
 18 48  1  0
 19 49  1  0
 21 50  1  0
 24 51  1  0
 25 52  1  0
 27 53  1  0
 33 54  1  0
 35 55  1  0
 36 56  1  0
 37 57  1  0
M  END
> <Name>
CHEMBL2087290

> <IC50 nM>
235

> <Molecule_ChEMBL_ID>
CHEMBL2087290

> <Smiles>
O=C(O)Cc1cc(Br)c(N(Cc2ccc(Oc3ccccc3Cl)cc2)Cc2cc(F)cc(F)c2)c(Br)c1

$$$$
CHEMBL1096126
  SciTegic08162514323D

 45 48  0  0  1  0            999 V2000
    4.8590    6.5450   -0.0720 F   0  0
    4.3710    5.3100    0.0240 C   0  0
    4.9610    4.2620   -0.7050 C   0  0
    3.2660    5.0530    0.8520 C   0  0
    4.4470    2.9590   -0.6050 C   0  0
    2.7500    3.7500    0.9530 C   0  0
    3.3400    2.6990    0.2250 C   0  0
    2.8420    1.4370    0.3220 N   0  0
    3.5920    0.2810    0.3460 N   0  0
    1.5350    1.0840    0.4120 C   0  0
    2.8590   -0.8830    0.4510 C   0  0
    1.6070   -0.2950    0.4860 C   0  0
    0.3120    1.7950    0.4400 C   0  0
    0.4100   -1.0490    0.5940 C   0  0
   -0.8870    1.0450    0.5470 C   0  0
   -0.8380   -0.3730    0.6250 C   0  0
   -2.0880   -1.1430    0.7360 C   0  0  2  0  0  0
   -2.0510   -1.9280    1.9060 O   0  0
   -2.2320   -2.0290   -0.4510 C   0  0
   -3.3090   -0.2270    0.8110 C   0  0
   -2.9000   -3.2660   -0.3500 C   0  0
   -1.6930   -1.6230   -1.6850 C   0  0
   -3.1840    0.6150    1.8870 F   0  0
   -4.4420   -0.9860    0.9550 F   0  0
   -3.3990    0.5120   -0.3400 F   0  0
   -3.0270   -4.0880   -1.4820 C   0  0
   -3.4770   -3.7130    0.9470 C   0  0
   -1.8220   -2.4470   -2.8160 C   0  0
   -2.4880   -3.6800   -2.7150 C   0  0
    5.8110    4.4570   -1.3420 H   0  0
    2.8090    5.8550    1.4140 H   0  0
    4.9160    2.1660   -1.1720 H   0  0
    1.8980    3.5720    1.5960 H   0  0
    3.2110   -1.9060    0.4880 H   0  0
    0.2890    2.8730    0.3810 H   0  0
    0.4410   -2.1290    0.6540 H   0  0
   -1.8360    1.5600    0.5680 H   0  0
   -1.2660   -2.4940    1.8480 H   0  0
   -1.1800   -0.6760   -1.7710 H   0  0
   -3.5390   -5.0370   -1.4140 H   0  0
   -4.2170   -4.4940    0.7660 H   0  0
   -2.6740   -4.0390    1.6080 H   0  0
   -3.9860   -2.8770    1.4260 H   0  0
   -1.4060   -2.1330   -3.7640 H   0  0
   -2.5860   -4.3130   -3.5840 H   0  0
  1  2  1  0
  2  3  2  0
  2  4  1  0
  3  5  1  0
  4  6  2  0
  5  7  2  0
  7  8  1  0
  8  9  1  0
  8 10  1  0
  9 11  2  0
 10 12  1  0
 10 13  2  0
 12 14  2  0
 13 15  1  0
 14 16  1  0
 16 17  1  0
 17 18  1  0
 17 19  1  0
 17 20  1  0
 19 21  2  0
 19 22  1  0
 20 23  1  0
 20 24  1  0
 20 25  1  0
 21 26  1  0
 21 27  1  0
 22 28  2  0
 26 29  2  0
  6  7  1  0
 11 12  1  0
 15 16  2  0
 28 29  1  0
  3 30  1  0
  4 31  1  0
  5 32  1  0
  6 33  1  0
 11 34  1  0
 13 35  1  0
 14 36  1  0
 15 37  1  0
 18 38  1  0
 22 39  1  0
 26 40  1  0
 27 41  1  0
 27 42  1  0
 27 43  1  0
 28 44  1  0
 29 45  1  0
M  END
> <Name>
CHEMBL1096126

> <IC50 nM>
282

> <Molecule_ChEMBL_ID>
CHEMBL1096126

> <Smiles>
Cc1ccccc1C(O)(c1ccc2c(cnn2-c2ccc(F)cc2)c1)C(F)(F)F

$$$$
CHEMBL3421884
  SciTegic08162514323D

 48 50  0  0  1  0            999 V2000
   -5.3810   -0.6250    2.2400 O   0  0
   -4.1700   -0.5760    1.6680 C   0  0
   -3.9880    0.1290    0.4570 C   0  0
   -3.0760   -1.2320    2.2710 C   0  0
   -2.7110    0.1870   -0.1520 C   0  0
   -1.7970   -1.1760    1.6700 C   0  0
   -1.5960   -0.4590    0.4570 C   0  0
   -2.5390    0.9140   -1.4380 C   0  0
   -0.2560   -0.3590   -0.2110 C   0  0  1  0  0  0
   -1.1680    1.6050   -1.6150 C   0  0
   -0.0530    1.1150   -0.6660 C   0  0  2  0  0  0
    0.9320   -0.7720    0.7190 C   0  0
   -0.2830   -1.2910   -1.4360 C   0  0
    1.3420    1.3710   -1.2720 C   0  0
    2.3500   -0.4920    0.1580 C   0  0  2  0  0  0
   -0.4200   -2.7640   -1.0530 C   0  0
    2.4810    0.9900   -0.3010 C   0  0  1  0  0  0
    2.5660   -1.3730   -0.9340 O   0  0
    3.4180   -0.8770    1.1930 C   0  0
    3.7110    1.1950   -0.9750 O   0  0
    2.4900    1.9300    0.8830 C   0  0
    2.7790    3.2250    0.6660 C   0  0
   -6.1210   -0.1740    1.8160 H   0  0
   -4.8320    0.6230   -0.0040 H   0  0
   -3.2130   -1.7770    3.1930 H   0  0
   -0.9880   -1.6910    2.1620 H   0  0
   -2.6720    0.1840   -2.2360 H   0  0
   -3.3320    1.6480   -1.5780 H   0  0
   -1.2830    2.6840   -1.4920 H   0  0
   -0.8590    1.4690   -2.6520 H   0  0
   -0.1230    1.7380    0.2280 H   0  0
    0.8440   -0.2340    1.6660 H   0  0
    0.8550   -1.8320    0.9730 H   0  0
   -1.0740   -0.9960   -2.1250 H   0  0
    0.5980   -1.1350   -2.0590 H   0  0
    1.4280    2.4220   -1.5570 H   0  0
    1.4340    0.8070   -2.2010 H   0  0
   -0.6410   -3.3710   -1.9300 H   0  0
    0.4960   -3.1290   -0.5900 H   0  0
   -1.2320   -2.9020   -0.3380 H   0  0
    2.4980   -2.2770   -0.5920 H   0  0
    3.2950   -1.9020    1.5430 H   0  0
    3.3650   -0.2210    2.0600 H   0  0
    4.4160   -0.7870    0.7660 H   0  0
    4.4200    1.0250   -0.3340 H   0  0
    2.2830    1.6680    1.9100 H   0  0
    2.8360    4.0100    1.4040 H   0  0
    2.9730    3.4880   -0.3630 H   0  0
  1  2  1  0
  2  3  2  0
  2  4  1  0
  3  5  1  0
  4  6  2  0
  5  7  2  0
  5  8  1  0
  7  9  1  0
  8 10  1  0
  9 11  1  0
  9 12  1  0
  9 13  1  0
 11 14  1  0
 12 15  1  0
 13 16  1  0
 14 17  1  0
 15 18  1  0
 15 19  1  0
 17 20  1  0
 17 21  1  0
 21 22  2  0
  6  7  1  0
 10 11  1  0
 15 17  1  0
  1 23  1  0
  3 24  1  0
  4 25  1  0
  6 26  1  0
  8 27  1  0
  8 28  1  0
 10 29  1  0
 10 30  1  0
 11 31  1  0
 12 32  1  0
 12 33  1  0
 13 34  1  0
 13 35  1  0
 14 36  1  0
 14 37  1  0
 16 38  1  0
 16 39  1  0
 16 40  1  0
 18 41  1  0
 19 42  1  0
 19 43  1  0
 19 44  1  0
 20 45  1  0
 21 46  1  0
 22 47  1  0
 22 48  1  0
M  END
> <Name>
CHEMBL3421884

> <IC50 nM>
12.1

> <Molecule_ChEMBL_ID>
CHEMBL3421884

> <Smiles>
C=C[C@]1(O)C[C@H]2CCc3cc(O)ccc3[C@]2(CC)C[C@@]1(C)O

$$$$
CHEMBL336353
  SciTegic08162514323D

 59 63  0  0  0  0            999 V2000
    3.5370   -6.2930    0.6860 F   0  0
    3.1580   -5.0700    0.3200 C   0  0
    1.8750   -4.5940    0.6740 C   0  0
    4.0410   -4.2540   -0.4220 C   0  0
    1.4590   -3.2850    0.2910 C   0  0
    3.6470   -2.9510   -0.8010 C   0  0
    2.3730   -2.4570   -0.4390 C   0  0
    0.1070   -2.7520    0.6130 C   0  0
    2.0530   -1.1930   -0.7910 O   0  0
   -0.2540   -1.4720    0.1020 C   0  0
   -0.8280   -3.4670    1.4100 C   0  0
    0.8810   -0.6440   -0.4300 C   0  0
   -1.6310   -1.0620    0.1370 C   0  0
   -2.1090   -2.9330    1.6560 C   0  0
    0.8090    0.7050   -0.5000 C   0  0
   -2.5210   -1.7300    1.0290 C   0  0
   -2.1990    0.0060   -0.7560 C   0  0
    1.9100    1.5390   -1.0740 C   0  0
   -3.7640   -1.2360    1.2720 N   0  0
   -3.4040    0.5370   -0.4630 C   0  0
   -1.5140    0.4850   -2.0140 C   0  0
    2.2580    2.7930   -0.5140 C   0  0
    2.6110    1.0570   -2.1930 C   0  0
   -4.2130    0.0820    0.7380 C   0  0
    1.5980    3.2970    0.5780 N   0  0
    3.3050    3.5450   -1.0860 C   0  0
    3.6520    1.8130   -2.7600 C   0  0
   -5.6820   -0.0330    0.3140 C   0  0
   -4.0820    1.1330    1.8440 C   0  0
    2.3540    3.6900    1.7770 C   0  0
    0.1370    3.4530    0.5740 C   0  0
    3.9980    3.0550   -2.2050 C   0  0
    1.2340   -5.2560    1.2340 H   0  0
    5.0180   -4.6210   -0.7010 H   0  0
    4.3260   -2.3320   -1.3690 H   0  0
   -0.5960   -4.4220    1.8540 H   0  0
   -2.7730   -3.4650    2.3240 H   0  0
   -0.0510    1.2440   -0.1310 H   0  0
   -4.4060   -1.7520    1.8400 H   0  0
   -3.8130    1.3090   -1.1020 H   0  0
   -0.6460   -0.1150   -2.2910 H   0  0
   -1.1780    1.5140   -1.8850 H   0  0
   -2.2150    0.4630   -2.8480 H   0  0
    2.3560    0.1020   -2.6290 H   0  0
    3.5880    4.5040   -0.6780 H   0  0
    4.1860    1.4360   -3.6190 H   0  0
   -5.8200   -0.7730   -0.4730 H   0  0
   -6.0510    0.9220   -0.0590 H   0  0
   -6.3050   -0.3240    1.1600 H   0  0
   -3.0510    1.2480    2.1760 H   0  0
   -4.6840    0.8580    2.7110 H   0  0
   -4.4300    2.1060    1.4940 H   0  0
    3.4300    3.5300    1.7130 H   0  0
    1.9840    3.1250    2.6330 H   0  0
    2.1860    4.7460    1.9770 H   0  0
   -0.2360    3.3050   -0.4390 H   0  0
   -0.2990    2.7720    1.3030 H   0  0
   -0.1150    4.4710    0.8770 H   0  0
    4.7990    3.6370   -2.6410 H   0  0
  1  2  1  0
  2  3  2  0
  2  4  1  0
  3  5  1  0
  4  6  2  0
  5  7  2  0
  5  8  1  0
  7  9  1  0
  8 10  2  0
  8 11  1  0
  9 12  1  0
 10 13  1  0
 11 14  2  0
 12 15  2  0
 13 16  2  0
 13 17  1  0
 15 18  1  0
 16 19  1  0
 17 20  2  0
 17 21  1  0
 18 22  2  0
 18 23  1  0
 19 24  1  0
 22 25  1  0
 22 26  1  0
 23 27  2  0
 24 28  1  0
 24 29  1  0
 25 30  1  0
 25 31  1  0
 26 32  2  0
  6  7  1  0
 10 12  1  0
 14 16  1  0
 20 24  1  0
 27 32  1  0
  3 33  1  0
  4 34  1  0
  6 35  1  0
 11 36  1  0
 14 37  1  0
 15 38  1  0
 19 39  1  0
 20 40  1  0
 21 41  1  0
 21 42  1  0
 21 43  1  0
 23 44  1  0
 26 45  1  0
 27 46  1  0
 28 47  1  0
 28 48  1  0
 28 49  1  0
 29 50  1  0
 29 51  1  0
 29 52  1  0
 30 53  1  0
 30 54  1  0
 30 55  1  0
 31 56  1  0
 31 57  1  0
 31 58  1  0
 32 59  1  0
M  END
> <Name>
CHEMBL336353

> <IC50 nM>
320

> <Molecule_ChEMBL_ID>
CHEMBL336353

> <Smiles>
CC1=CC(C)(C)Nc2ccc3c(c21)/C(=C/c1ccccc1N(C)C)Oc1ccc(F)cc1-3

$$$$
CHEMBL1094206
  SciTegic08162514323D

 42 45  0  0  1  0            999 V2000
   -1.3670   -0.9380    2.4140 F   0  0
   -1.7600   -2.1530    2.0350 C   0  0
   -2.3570   -2.3560    0.7770 C   0  0
   -1.5720   -3.2420    2.9060 C   0  0
   -2.7660   -3.6450    0.3950 C   0  0
   -2.5610   -1.2130   -0.1540 C   0  0  1  0  0  0
   -1.9800   -4.5300    2.5220 C   0  0
   -2.5780   -4.7330    1.2660 C   0  0
   -3.5840   -0.3790    0.3420 O   0  0
   -1.3120   -0.4420   -0.2660 C   0  0
   -3.0590   -1.6820   -1.5220 C   0  0
   -0.0640   -1.1190   -0.2950 C   0  0
   -1.3610    0.9760   -0.3440 C   0  0
   -3.1130   -0.6130   -2.3790 F   0  0
   -4.3090   -2.2290   -1.3910 F   0  0
   -2.1950   -2.6230   -2.0220 F   0  0
    1.1330   -0.3630   -0.4040 C   0  0
   -0.1620    1.7240   -0.4510 C   0  0
    1.0610    1.0140   -0.4770 C   0  0
    2.3850   -0.9530   -0.4390 C   0  0
    2.3670    1.3690   -0.5680 N   0  0
    3.1170    0.2130   -0.5430 N   0  0
    2.8650    2.6290   -0.6640 C   0  0
    2.3240    3.6660    0.1210 C   0  0
    3.9240    2.9040   -1.5530 C   0  0
    2.8400    4.9690    0.0200 C   0  0
    4.4380    4.2090   -1.6520 C   0  0
    3.8970    5.2400   -0.8670 C   0  0
    4.3850    6.4770   -0.9610 F   0  0
   -1.1130   -3.0920    3.8730 H   0  0
   -3.2250   -3.8070   -0.5700 H   0  0
   -1.8360   -5.3650    3.1900 H   0  0
   -2.8930   -5.7210    0.9690 H   0  0
   -3.3130   -0.0880    1.2270 H   0  0
   -0.0330   -2.1970   -0.2360 H   0  0
   -2.3110    1.4920   -0.3220 H   0  0
   -0.1860    2.8030   -0.5100 H   0  0
    2.7360   -1.9750   -0.4000 H   0  0
    1.5120    3.4760    0.8090 H   0  0
    4.3540    2.1230   -2.1640 H   0  0
    2.4220    5.7600    0.6250 H   0  0
    5.2500    4.4140   -2.3340 H   0  0
  1  2  1  0
  2  3  2  0
  2  4  1  0
  3  5  1  0
  3  6  1  0
  4  7  2  0
  5  8  2  0
  6  9  1  0
  6 10  1  0
  6 11  1  0
 10 12  2  0
 10 13  1  0
 11 14  1  0
 11 15  1  0
 11 16  1  0
 12 17  1  0
 13 18  2  0
 17 19  2  0
 17 20  1  0
 19 21  1  0
 20 22  2  0
 21 23  1  0
 23 24  2  0
 23 25  1  0
 24 26  1  0
 25 27  2  0
 26 28  2  0
 28 29  1  0
  7  8  1  0
 18 19  1  0
 21 22  1  0
 27 28  1  0
  4 30  1  0
  5 31  1  0
  7 32  1  0
  8 33  1  0
  9 34  1  0
 12 35  1  0
 13 36  1  0
 18 37  1  0
 20 38  1  0
 24 39  1  0
 25 40  1  0
 26 41  1  0
 27 42  1  0
M  END
> <Name>
CHEMBL1094206

> <IC50 nM>
54

> <Molecule_ChEMBL_ID>
CHEMBL1094206

> <Smiles>
OC(c1ccc2c(cnn2-c2ccc(F)cc2)c1)(c1ccccc1F)C(F)(F)F

$$$$
CHEMBL267431
  SciTegic08162514323D

 68 72  0  0  1  0            999 V2000
   -6.4570   -2.4980   -1.0200 O   0  0
   -5.3440   -2.1070   -0.7500 C   0  0
   -4.2050   -3.0390   -0.7210 C   0  0
   -5.0740   -0.6600   -0.4260 C   0  0
   -2.9260   -2.6150   -0.6560 C   0  0
   -3.7150   -0.1880   -0.9630 C   0  0
   -2.5780   -1.1640   -0.6920 C   0  0
   -1.8300   -3.6520   -0.5490 C   0  0
   -1.3010   -0.7340   -0.4940 C   0  0
   -0.4710   -3.0920   -0.9650 C   0  0
   -0.9380    0.7520   -0.4860 C   0  0  1  0  0  0
   -0.1820   -1.7500   -0.2640 C   0  0  1  0  0  0
   -1.2620    1.3650    0.8300 C   0  0
    0.5200    1.0740   -0.9020 C   0  0
    1.1890   -1.2720   -0.7680 C   0  0  1  0  0  0
   -1.6800    0.5530    1.8980 C   0  0
   -1.1520    2.7560    1.0060 C   0  0
    1.5410    0.1270   -0.2580 C   0  0  1  0  0  0
    2.4020   -2.1060   -0.3420 C   0  0
   -1.9860    1.1310    3.1430 C   0  0
   -1.4610    3.3340    2.2500 C   0  0
    2.9940    0.2270   -0.7700 C   0  0  2  0  0  0
    1.5040    0.1840    1.2790 C   0  0
    3.5840   -1.1290   -0.3500 C   0  0
   -1.8770    2.5230    3.3200 C   0  0
    3.6930    1.2950   -0.1600 O   0  0
    3.1250    0.4120   -2.2830 C   0  0
   -2.2030    3.1370    4.6410 C   0  0
    5.0660    1.3110   -0.4770 C   0  0
    4.3890   -0.0720   -2.6800 O   0  0
   -2.0980    4.4060    4.7830 N   0  0
    4.6210    0.0550   -4.0650 C   0  0
   -2.4080    5.0160    6.0450 O   0  0
   -4.4140   -4.0980   -0.7480 H   0  0
   -5.1000   -0.5370    0.6560 H   0  0
   -5.8710   -0.0330   -0.8280 H   0  0
   -3.5240    0.7910   -0.5250 H   0  0
   -3.7850   -0.0330   -2.0410 H   0  0
   -1.7790   -4.0020    0.4840 H   0  0
   -2.0660   -4.5240   -1.1620 H   0  0
   -0.4550   -2.9590   -2.0470 H   0  0
    0.3050   -3.8220   -0.7330 H   0  0
   -1.5570    1.2700   -1.2210 H   0  0
   -0.1210   -1.9300    0.8100 H   0  0
    0.7730    2.1110   -0.6780 H   0  0
    0.5840    0.9940   -1.9880 H   0  0
    1.1620   -1.2580   -1.8520 H   0  0
   -1.7660   -0.5160    1.7710 H   0  0
   -0.8320    3.3850    0.1870 H   0  0
    2.5630   -2.9400   -1.0080 H   0  0
    2.2600   -2.5060    0.6520 H   0  0
   -2.3070    0.5000    3.9590 H   0  0
   -1.3730    4.4040    2.3750 H   0  0
    2.2790   -0.4380    1.7270 H   0  0
    0.5410   -0.1620    1.6540 H   0  0
    1.6520    1.2050    1.6310 H   0  0
    4.0140   -1.0860    0.6430 H   0  0
    4.3690   -1.4570   -1.0160 H   0  0
    2.3610   -0.1620   -2.8090 H   0  0
    3.0660    1.4670   -2.5490 H   0  0
   -2.5270    2.5370    5.4790 H   0  0
    5.7230    1.8540    0.2050 H   0  0
    5.1820    1.7480   -1.4690 H   0  0
    5.4160    0.2790   -0.5240 H   0  0
    5.6250   -0.3140   -4.2740 H   0  0
    3.8030   -0.4320   -4.5920 H   0  0
    4.5980    1.1150   -4.3170 H   0  0
   -2.2790    5.9710    5.9900 H   0  0
  1  2  2  0
  2  3  1  0
  2  4  1  0
  3  5  2  0
  4  6  1  0
  5  7  1  0
  5  8  1  0
  7  9  2  0
  8 10  1  0
  9 11  1  0
  9 12  1  0
 11 13  1  0
 11 14  1  0
 12 15  1  0
 13 16  2  0
 13 17  1  0
 14 18  1  0
 15 19  1  0
 16 20  1  0
 17 21  2  0
 18 22  1  0
 18 23  1  0
 19 24  1  0
 20 25  2  0
 22 26  1  0
 22 27  1  0
 25 28  1  0
 26 29  1  0
 27 30  1  0
 28 31  2  0
 30 32  1  0
 31 33  1  0
  6  7  1  0
 12 10  1  0
 15 18  1  0
 21 25  1  0
 22 24  1  0
  3 34  1  0
  4 35  1  0
  4 36  1  0
  6 37  1  0
  6 38  1  0
  8 39  1  0
  8 40  1  0
 10 41  1  0
 10 42  1  0
 11 43  1  0
 12 44  1  0
 14 45  1  0
 14 46  1  0
 15 47  1  0
 16 48  1  0
 17 49  1  0
 19 50  1  0
 19 51  1  0
 20 52  1  0
 21 53  1  0
 23 54  1  0
 23 55  1  0
 23 56  1  0
 24 57  1  0
 24 58  1  0
 27 59  1  0
 27 60  1  0
 28 61  1  0
 29 62  1  0
 29 63  1  0
 29 64  1  0
 32 65  1  0
 32 66  1  0
 32 67  1  0
 33 68  1  0
M  END
> <Name>
CHEMBL267431

> <IC50 nM>
85

> <Molecule_ChEMBL_ID>
CHEMBL267431

> <Smiles>
COC[C@]1(OC)CC[C@H]2[C@@H]3CCC4=CC(=O)CCC4=C3[C@@H](c3ccc(/C=N/O)cc3)C[C@@]21C

$$$$
CHEMBL2087283
  SciTegic08162514323D

 57 60  0  0  0  0            999 V2000
   -1.3600    0.2150   -2.7970 Br  0  0
   -1.5840    0.2130   -0.9140 C   0  0
   -0.9730    1.1700   -0.0570 C   0  0
   -2.3990   -0.7970   -0.3670 C   0  0
   -0.1720    2.1620   -0.5800 N   0  0
   -1.1960    1.0920    1.3460 C   0  0
   -2.6130   -0.8670    1.0160 C   0  0
    1.2030    1.8770   -1.0160 C   0  0
   -0.6920    3.5310   -0.7110 C   0  0
   -0.4380    2.3090    2.5860 Br  0  0
   -2.0140    0.0720    1.8670 C   0  0
   -3.4770   -1.9370    1.5800 C   0  0
    1.8060    0.7680   -0.2320 C   0  0
   -0.4240    4.0920   -2.0620 C   0  0
   -4.9360   -1.5780    1.5260 C   0  0
    1.7440   -0.5510   -0.7170 C   0  0
    2.4390    1.0350    0.9940 C   0  0
    0.7500    4.8280   -2.2990 C   0  0
   -1.3460    3.8850   -3.1030 C   0  0
   -5.2990   -0.5230    1.0590 O   0  0
   -5.7640   -2.4920    2.0220 O   0  0
    2.3160   -1.6000    0.0250 C   0  0
    3.0100   -0.0160    1.7350 C   0  0
    1.0040    5.3580   -3.5760 C   0  0
   -1.0920    4.4160   -4.3810 C   0  0
    2.9490   -1.3360    1.2520 C   0  0
    0.0820    5.1510   -4.6170 C   0  0
    3.4840   -2.3200    1.9450 O   0  0
    2.8670   -3.4840    1.9450 C   0  0
    1.4630   -3.5390    1.9450 C   0  0
    3.6110   -4.6780    1.9450 C   0  0
    0.8050   -4.7790    1.9450 C   0  0
    2.9550   -5.9200    1.9450 C   0  0
    1.5510   -5.9710    1.9450 C   0  0
   -2.8690   -1.5310   -1.0060 H   0  0
    1.8080    2.7740   -0.8960 H   0  0
    1.1970    1.6150   -2.0720 H   0  0
   -0.2250    4.1640    0.0430 H   0  0
   -1.7660    3.5270   -0.5250 H   0  0
   -2.1920   -0.0020    2.9320 H   0  0
   -3.3030   -2.8670    1.0370 H   0  0
   -3.1820   -2.1370    2.6110 H   0  0
    1.2600   -0.7640   -1.6580 H   0  0
    2.4900    2.0450    1.3730 H   0  0
    1.4630    4.9900   -1.5020 H   0  0
   -2.2500    3.3200   -2.9300 H   0  0
   -6.7150   -2.3940    1.8830 H   0  0
    2.2650   -2.6110   -0.3510 H   0  0
    3.4960    0.1930    2.6760 H   0  0
    1.9060    5.9220   -3.7580 H   0  0
   -1.7990    4.2560   -5.1820 H   0  0
    0.2770    5.5590   -5.6000 H   0  0
    0.8870   -2.6250    1.9450 H   0  0
    4.6910   -4.6430    1.9450 H   0  0
   -0.2760   -4.8180    1.9450 H   0  0
    3.5290   -6.8340    1.9450 H   0  0
    1.0450   -6.9260    1.9450 H   0  0
  1  2  1  0
  2  3  2  0
  2  4  1  0
  3  5  1  0
  3  6  1  0
  4  7  2  0
  5  8  1  0
  5  9  1  0
  6 10  1  0
  6 11  2  0
  7 12  1  0
  8 13  1  0
  9 14  1  0
 12 15  1  0
 13 16  2  0
 13 17  1  0
 14 18  2  0
 14 19  1  0
 15 20  2  0
 15 21  1  0
 16 22  1  0
 17 23  2  0
 18 24  1  0
 19 25  2  0
 22 26  2  0
 24 27  2  0
 26 28  1  0
 28 29  1  0
 29 30  2  0
 29 31  1  0
 30 32  1  0
 31 33  2  0
 32 34  2  0
  7 11  1  0
 23 26  1  0
 25 27  1  0
 33 34  1  0
  4 35  1  0
  8 36  1  0
  8 37  1  0
  9 38  1  0
  9 39  1  0
 11 40  1  0
 12 41  1  0
 12 42  1  0
 16 43  1  0
 17 44  1  0
 18 45  1  0
 19 46  1  0
 21 47  1  0
 22 48  1  0
 23 49  1  0
 24 50  1  0
 25 51  1  0
 27 52  1  0
 30 53  1  0
 31 54  1  0
 32 55  1  0
 33 56  1  0
 34 57  1  0
M  END
> <Name>
CHEMBL2087283

> <IC50 nM>
1200

> <Molecule_ChEMBL_ID>
CHEMBL2087283

> <Smiles>
O=C(O)Cc1cc(Br)c(N(Cc2ccccc2)Cc2ccc(Oc3ccccc3)cc2)c(Br)c1

$$$$
CHEMBL2087299
  SciTegic08162514323D

 63 66  0  0  0  0            999 V2000
   -3.1560    2.1000    3.4320 Br  0  0
   -3.5700    0.5250    2.4590 C   0  0
   -2.8180    0.0860    1.3340 C   0  0
   -4.6800   -0.2230    2.8930 C   0  0
   -1.7290    0.8090    0.9000 N   0  0
   -3.2010   -1.1090    0.6620 C   0  0
   -5.0530   -1.3980    2.2270 C   0  0
   -1.7560    1.5220   -0.3870 C   0  0
   -0.5140    0.8770    1.7270 C   0  0
   -2.2750   -1.7930   -0.8440 Br  0  0
   -4.3160   -1.8380    1.1170 C   0  0
   -6.2270   -2.1800    2.6950 C   0  0
   -1.9200    2.9860   -0.1970 C   0  0
    0.5900    0.0720    1.1430 C   0  0
   -5.8400   -3.2540    3.6760 C   0  0
   -3.1950    3.5290    0.0350 C   0  0
   -0.7970    3.8320   -0.2500 C   0  0
    0.5860   -1.3280    1.2740 C   0  0
    1.6410    0.7090    0.4590 C   0  0
   -6.6170   -4.1270    3.9830 O   0  0
   -4.6040   -3.1580    4.1600 O   0  0
   -3.3500    4.9140    0.2130 C   0  0
   -0.9510    5.2190   -0.0700 C   0  0
    1.6310   -2.0880    0.7210 C   0  0
    2.6860   -0.0550   -0.0920 C   0  0
   -4.5590    5.4280    0.4300 F   0  0
   -2.2270    5.7600    0.1600 C   0  0
    0.1110    6.0180   -0.1170 F   0  0
    2.6840   -1.4530    0.0370 C   0  0
    3.6620   -2.1680   -0.4780 O   0  0
    4.1820   -1.7700   -1.6230 C   0  0
    5.5660   -1.8810   -1.8590 C   0  0
    3.3480   -1.2290   -2.6190 C   0  0
    6.1090   -1.4530   -3.0840 C   0  0
    6.4610   -2.4510   -0.8180 C   0  0
    3.8910   -0.8010   -3.8420 C   0  0
    5.2720   -0.9140   -4.0760 C   0  0
    6.1150   -3.7580   -0.5820 F   0  0
    6.3340   -1.7290    0.3400 F   0  0
    7.7620   -2.3950   -1.2520 F   0  0
    5.8460   -0.4610   -5.3690 C   0  0
    4.9670    0.3890   -5.9880 F   0  0
    6.0740   -1.5490   -6.1740 F   0  0
    7.0290    0.1930   -5.1410 F   0  0
   -5.2620    0.0980    3.7460 H   0  0
   -2.5800    1.1390   -0.9900 H   0  0
   -0.8300    1.3240   -0.9240 H   0  0
   -0.7400    0.5120    2.7270 H   0  0
   -0.1990    1.9180    1.8150 H   0  0
   -4.6210   -2.7460    0.6150 H   0  0
   -6.9530   -1.5060    3.1510 H   0  0
   -6.7330   -2.6250    1.8380 H   0  0
   -4.0590    2.8810    0.0780 H   0  0
    0.1860    3.4160   -0.4280 H   0  0
   -0.2190   -1.8240    1.7970 H   0  0
    1.6500    1.7850    0.3560 H   0  0
   -4.2970   -3.8090    4.8030 H   0  0
    1.6230   -3.1640    0.8240 H   0  0
    3.4900    0.4390   -0.6150 H   0  0
   -2.3460    6.8240    0.2990 H   0  0
    2.2850   -1.1410   -2.4410 H   0  0
    7.1720   -1.5410   -3.2640 H   0  0
    3.2400   -0.3870   -4.6000 H   0  0
  1  2  1  0
  2  3  2  0
  2  4  1  0
  3  5  1  0
  3  6  1  0
  4  7  2  0
  5  8  1  0
  5  9  1  0
  6 10  1  0
  6 11  2  0
  7 12  1  0
  8 13  1  0
  9 14  1  0
 12 15  1  0
 13 16  2  0
 13 17  1  0
 14 18  2  0
 14 19  1  0
 15 20  2  0
 15 21  1  0
 16 22  1  0
 17 23  2  0
 18 24  1  0
 19 25  2  0
 22 26  1  0
 22 27  2  0
 23 28  1  0
 24 29  2  0
 29 30  1  0
 30 31  1  0
 31 32  2  0
 31 33  1  0
 32 34  1  0
 32 35  1  0
 33 36  2  0
 34 37  2  0
 35 38  1  0
 35 39  1  0
 35 40  1  0
 37 41  1  0
 41 42  1  0
 41 43  1  0
 41 44  1  0
  7 11  1  0
 23 27  1  0
 25 29  1  0
 36 37  1  0
  4 45  1  0
  8 46  1  0
  8 47  1  0
  9 48  1  0
  9 49  1  0
 11 50  1  0
 12 51  1  0
 12 52  1  0
 16 53  1  0
 17 54  1  0
 18 55  1  0
 19 56  1  0
 21 57  1  0
 24 58  1  0
 25 59  1  0
 27 60  1  0
 33 61  1  0
 34 62  1  0
 36 63  1  0
M  END
> <Name>
CHEMBL2087299

> <IC50 nM>
111

> <Molecule_ChEMBL_ID>
CHEMBL2087299

> <Smiles>
O=C(O)Cc1cc(Br)c(N(Cc2ccc(Oc3ccc(C(F)(F)F)cc3C(F)(F)F)cc2)Cc2cc(F)cc(F)c2)c(Br)c1

$$$$
CHEMBL427554
  SciTegic08162514323D

 62 65  0  0  1  0            999 V2000
   -6.1170    4.7600   -0.3890 O   0  0
   -6.0780    3.5510   -0.3360 C   0  0
   -7.1230    2.6920   -0.4040 O   0  0
   -4.8610    2.7790   -0.1800 C   0  0
   -6.6580    1.3110   -0.2990 C   0  0
   -5.1560    1.4300   -0.1520 C   0  0
   -3.5350    3.2600   -0.0680 C   0  0
   -4.0980    0.4980   -0.0040 C   0  0
   -2.4770    2.3320    0.0760 C   0  0
   -2.7520    0.9400    0.1110 C   0  0
   -1.7560    0.0530    0.2480 N   0  0
   -0.5820    0.2330   -0.4280 C   0  0
   -0.4360    1.1900   -1.1520 O   0  0
    0.5160   -0.7810   -0.2520 C   0  0  1  0  0  0
    1.5840   -0.4730   -1.1170 O   0  0
    1.0040   -0.6150    1.1880 C   0  0
    0.0490   -2.2050   -0.5570 C   0  0
    2.2230    0.3030    1.2950 C   0  0
   -0.5350   -2.3480   -1.9610 C   0  0
    2.4900    0.6930    2.7050 C   0  0
    3.4650   -0.2850    0.6290 C   0  0
    1.9260    1.7330    0.8380 C   0  0
    0.5200   -2.6480   -2.9650 C   0  0
    3.5570    1.5610    3.0040 C   0  0
    1.6780    0.1950    3.7400 C   0  0
    1.3050   -3.8090   -2.8340 C   0  0
    0.7320   -1.7750   -4.0450 C   0  0
    3.8110    1.9280    4.3380 C   0  0
    1.9340    0.5650    5.0720 C   0  0
    2.3010   -4.0940   -3.7830 C   0  0
    1.7300   -2.0600   -4.9940 C   0  0
    2.9980    1.4300    5.3710 C   0  0
    2.5140   -3.2190   -4.8630 C   0  0
   -7.1080    0.8440    0.5660 H   0  0
   -6.9280    0.7700   -1.1930 H   0  0
   -3.3280    4.3200   -0.0920 H   0  0
   -4.3360   -0.5550    0.0200 H   0  0
   -1.4630    2.6990    0.1600 H   0  0
   -1.8710   -0.7400    0.8460 H   0  0
    1.2050   -0.3280   -2.0000 H   0  0
    0.1970   -0.2620    1.8300 H   0  0
    1.2110   -1.5860    1.6390 H   0  0
   -0.6640   -2.5450    0.1950 H   0  0
    0.8610   -2.9180   -0.4020 H   0  0
   -1.0650   -1.4390   -2.2520 H   0  0
   -1.2950   -3.1290   -1.9860 H   0  0
    4.3440   -0.2090    1.2680 H   0  0
    3.6860    0.2340   -0.3050 H   0  0
    3.3140   -1.3400    0.3950 H   0  0
    2.8300    2.3400    0.8690 H   0  0
    1.5290    1.7360   -0.1780 H   0  0
    1.1870    2.1990    1.4880 H   0  0
    4.1840    1.9470    2.2150 H   0  0
    0.8570   -0.4730    3.5180 H   0  0
    1.1450   -4.4840   -2.0060 H   0  0
    0.1330   -0.8830   -4.1520 H   0  0
    4.6290    2.5940    4.5660 H   0  0
    1.3090    0.1820    5.8670 H   0  0
    2.9020   -4.9840   -3.6840 H   0  0
    1.8930   -1.3890   -5.8240 H   0  0
    3.1930    1.7130    6.3950 H   0  0
    3.2790   -3.4390   -5.5940 H   0  0
  1  2  2  0
  2  3  1  0
  2  4  1  0
  3  5  1  0
  4  6  2  0
  4  7  1  0
  6  8  1  0
  7  9  2  0
  8 10  2  0
 10 11  1  0
 11 12  1  0
 12 13  2  0
 12 14  1  0
 14 15  1  0
 14 16  1  0
 14 17  1  0
 16 18  1  0
 17 19  1  0
 18 20  1  0
 18 21  1  0
 18 22  1  0
 19 23  1  0
 20 24  2  0
 20 25  1  0
 23 26  2  0
 23 27  1  0
 24 28  1  0
 25 29  2  0
 26 30  1  0
 27 31  2  0
 28 32  2  0
 30 33  2  0
  5  6  1  0
  9 10  1  0
 29 32  1  0
 31 33  1  0
  5 34  1  0
  5 35  1  0
  7 36  1  0
  8 37  1  0
  9 38  1  0
 11 39  1  0
 15 40  1  0
 16 41  1  0
 16 42  1  0
 17 43  1  0
 17 44  1  0
 19 45  1  0
 19 46  1  0
 21 47  1  0
 21 48  1  0
 21 49  1  0
 22 50  1  0
 22 51  1  0
 22 52  1  0
 24 53  1  0
 25 54  1  0
 26 55  1  0
 27 56  1  0
 28 57  1  0
 29 58  1  0
 30 59  1  0
 31 60  1  0
 32 61  1  0
 33 62  1  0
M  END
> <Name>
CHEMBL427554

> <IC50 nM>
57

> <Molecule_ChEMBL_ID>
CHEMBL427554

> <Smiles>
CC(C)(CC(O)(CCc1ccccc1)C(=O)Nc1ccc2c(c1)COC2=O)c1ccccc1

$$$$
CHEMBL3234863
  SciTegic08162514323D

 61 66  0  0  1  0            999 V2000
    1.8710   -2.8160    2.4440 O   0  0
    1.1500   -2.1000    1.7890 C   0  0
    1.4120   -1.6560    0.5590 O   0  0
   -0.0700   -1.6480    2.2800 N   0  0
    0.3130   -0.8360    0.1330 C   0  0  1  0  0  0
   -0.6520   -0.8520    1.2990 C   0  0
   -0.6430   -1.9550    3.5880 C   0  0  1  0  0  0
    0.8200    0.5590   -0.1540 C   0  0
   -0.3050   -1.4470   -1.1190 C   0  0
   -1.7230   -0.2970    1.3970 O   0  0
   -1.3380   -3.2680    3.5880 C   0  0
    0.3950   -1.8670    4.7090 C   0  0
    0.0760    1.7210   -0.1170 O   0  0
    2.0840    0.8730   -0.4920 N   0  0
    0.6880   -1.5590   -2.2210 C   0  0
   -2.7440   -3.3200    3.5880 C   0  0
   -0.5920   -4.4590    3.5880 C   0  0
    0.9570    2.7300   -0.4470 C   0  0
    2.1680    2.1880   -0.6680 N   0  0
    0.7560   -0.5590   -3.2070 C   0  0
    1.5570   -2.6620   -2.2750 C   0  0
   -3.4000   -4.5630    3.5880 C   0  0
   -1.2500   -5.7010    3.5880 C   0  0
    0.6310    4.2030   -0.5450 C   0  0
    1.6950   -0.6640   -4.2500 C   0  0
    2.4940   -2.7660   -3.3160 C   0  0
   -2.6540   -5.7520    3.5880 C   0  0
   -0.0780    4.4610   -1.8440 C   0  0
    1.5900    5.2310    0.0240 C   0  0
    0.2600    4.9810    0.7010 C   0  0
    2.5650   -1.7680   -4.3030 C   0  0
   -1.4820    4.4630   -1.8890 C   0  0
    0.6620    4.7030   -3.0140 C   0  0
   -2.1460    4.7030   -3.1050 C   0  0
   -0.0020    4.9430   -4.2280 C   0  0
   -1.4060    4.9450   -4.2750 C   0  0
   -1.4790   -1.2850    3.7850 H   0  0
   -1.1580   -0.8560   -1.4550 H   0  0
   -0.7210   -2.4320   -0.9020 H   0  0
    0.9610   -0.9380    4.6390 H   0  0
   -0.0880   -1.9160    5.6860 H   0  0
    1.1020   -2.6930    4.6450 H   0  0
   -3.3220   -2.4080    3.5880 H   0  0
    0.4880   -4.4280    3.5880 H   0  0
    0.0920    0.2910   -3.1720 H   0  0
    1.5080   -3.4320   -1.5190 H   0  0
   -4.4810   -4.6020    3.5880 H   0  0
   -0.6760   -6.6170    3.5880 H   0  0
    1.7480    0.1020   -5.0080 H   0  0
    3.1620   -3.6130   -3.3570 H   0  0
   -3.1600   -6.7070    3.5880 H   0  0
    1.7170    6.1740   -0.5080 H   0  0
    2.4860    4.8670    0.5260 H   0  0
    0.2700    4.4510    1.6550 H   0  0
   -0.5020    5.7580    0.6210 H   0  0
    3.2850   -1.8500   -5.1030 H   0  0
   -2.0590    4.2770   -0.9940 H   0  0
    1.7420    4.7030   -2.9860 H   0  0
   -3.2270    4.7050   -3.1390 H   0  0
    0.5680    5.1290   -5.1290 H   0  0
   -1.9160    5.1310   -5.2090 H   0  0
  1  2  2  0
  2  3  1  0
  2  4  1  0
  3  5  1  0
  4  6  1  0
  4  7  1  0
  5  8  1  0
  5  9  1  0
  6 10  2  0
  7 11  1  0
  7 12  1  0
  8 13  1  0
  8 14  2  0
  9 15  1  0
 11 16  2  0
 11 17  1  0
 13 18  1  0
 14 19  1  0
 15 20  2  0
 15 21  1  0
 16 22  1  0
 17 23  2  0
 18 24  1  0
 20 25  1  0
 21 26  2  0
 22 27  2  0
 24 28  1  0
 24 29  1  0
 24 30  1  0
 25 31  2  0
 28 32  2  0
 28 33  1  0
 32 34  1  0
 33 35  2  0
 34 36  2  0
  5  6  1  0
 18 19  2  0
 23 27  1  0
 26 31  1  0
 29 30  1  0
 35 36  1  0
  7 37  1  0
  9 38  1  0
  9 39  1  0
 12 40  1  0
 12 41  1  0
 12 42  1  0
 16 43  1  0
 17 44  1  0
 20 45  1  0
 21 46  1  0
 22 47  1  0
 23 48  1  0
 25 49  1  0
 26 50  1  0
 27 51  1  0
 29 52  1  0
 29 53  1  0
 30 54  1  0
 30 55  1  0
 31 56  1  0
 32 57  1  0
 33 58  1  0
 34 59  1  0
 35 60  1  0
 36 61  1  0
M  END
> <Name>
CHEMBL3234863

> <IC50 nM>
5000

> <Molecule_ChEMBL_ID>
CHEMBL3234863

> <Smiles>
C[C@H](c1ccccc1)N1C(=O)O[C@](Cc2ccccc2)(c2nnc(C3(c4ccccc4)CC3)o2)C1=O

$$$$
CHEMBL3261398
  SciTegic08162514323D

 45 47  0  0  1  0            999 V2000
   -1.8230   -6.0210   -0.3120 Cl  0  0
   -2.9440   -4.9240    0.3810 C   0  0
   -2.5800   -3.5860    0.6350 C   0  0
   -4.2430   -5.3650    0.6970 C   0  0
   -0.9910   -3.0190    0.2540 S   0  0
   -3.5120   -2.6970    1.2010 C   0  0
   -5.1740   -4.4770    1.2660 C   0  0
   -0.5160   -3.7400   -0.9140 O   0  0
   -0.1490   -3.2050    1.4240 O   0  0
   -0.8850   -1.3300   -0.1480 N   0  0
   -4.8090   -3.1420    1.5160 C   0  0
   -3.1350   -1.2830    1.4710 C   0  0
   -6.7540   -5.0190    1.6520 Cl  0  0
    0.4370   -0.7560   -0.3380 C   0  0  2  0  0  0
    0.3570    0.7720   -0.3570 C   0  0
    1.0970   -1.3280   -1.5920 C   0  0
    1.6700    1.3130   -0.3870 O   0  0
    1.8010    2.6490   -0.4000 C   0  0
    3.0820    3.2640   -0.4140 C   0  0
    0.6380    3.4530   -0.4000 C   0  0
    3.1950    4.6940   -0.4280 C   0  0
    4.2670    2.4770   -0.4140 C   0  0
    0.7460    4.8620   -0.4140 C   0  0
    4.4390    5.2970   -0.4390 N   0  0
    2.0170    5.4810   -0.4280 C   0  0
    5.5290    3.1170   -0.4280 C   0  0
    5.5880    4.5310   -0.4410 C   0  0
   -4.5260   -6.3930    0.5060 H   0  0
   -1.4400   -1.1440   -0.9960 H   0  0
   -5.5180   -2.4530    1.9490 H   0  0
   -3.1000   -0.6500    0.5840 H   0  0
   -2.1510   -1.2540    1.9400 H   0  0
   -3.8480   -0.8440    2.1680 H   0  0
    0.9470   -1.1030    0.5610 H   0  0
   -0.1450    1.1430    0.5350 H   0  0
   -0.1740    1.1190   -1.2420 H   0  0
    1.2930   -2.3940   -1.4710 H   0  0
    0.4610   -1.1800   -2.4630 H   0  0
    2.0490   -0.8340   -1.7850 H   0  0
   -0.3380    2.9900   -0.3910 H   0  0
    4.2240    1.3970   -0.4040 H   0  0
   -0.1470    5.4710   -0.4140 H   0  0
    2.0740    6.5590   -0.4370 H   0  0
    6.4370    2.5330   -0.4300 H   0  0
    6.5510    5.0220   -0.4510 H   0  0
  1  2  1  0
  2  3  2  0
  2  4  1  0
  3  5  1  0
  3  6  1  0
  4  7  2  0
  5  8  2  0
  5  9  2  0
  5 10  1  0
  6 11  2  0
  6 12  1  0
  7 13  1  0
 10 14  1  0
 14 15  1  0
 14 16  1  0
 15 17  1  0
 17 18  1  0
 18 19  2  0
 18 20  1  0
 19 21  1  0
 19 22  1  0
 20 23  2  0
 21 24  1  0
 21 25  2  0
 22 26  2  0
 24 27  2  0
  7 11  1  0
 23 25  1  0
 26 27  1  0
  4 28  1  0
 10 29  1  0
 11 30  1  0
 12 31  1  0
 12 32  1  0
 12 33  1  0
 14 34  1  0
 15 35  1  0
 15 36  1  0
 16 37  1  0
 16 38  1  0
 16 39  1  0
 20 40  1  0
 22 41  1  0
 23 42  1  0
 25 43  1  0
 26 44  1  0
 27 45  1  0
M  END
> <Name>
CHEMBL3261398

> <IC50 nM>
220

> <Molecule_ChEMBL_ID>
CHEMBL3261398

> <Smiles>
Cc1cc(Cl)cc(Cl)c1S(=O)(=O)N[C@@H](C)COc1cccc2ncccc12

$$$$
CHEMBL3126938
  SciTegic08162514323D

 62 65  0  0  1  0            999 V2000
    6.8090    4.7010   -1.9650 F   0  0
    5.9400    3.7580   -2.3140 C   0  0
    5.1270    3.1500   -1.3420 C   0  0
    5.8320    3.3650   -3.6600 C   0  0
    4.2090    2.1500   -1.7090 C   0  0
    4.9140    2.3690   -4.0310 C   0  0
    4.1020    1.7600   -3.0590 C   0  0
    3.3580    1.5190   -0.6640 C   0  0
    3.1350    0.7050   -3.4710 C   0  0
    2.1210    2.3520   -1.0080 C   0  0
    3.8890    1.8030    0.7400 C   0  0
    3.1560    0.0270   -0.9300 C   0  0
    0.8560    1.8380   -0.3200 C   0  0  1  0  0  0
    1.2380    0.9370    0.6930 O   0  0
    0.1970    3.0510    0.3420 C   0  0
   -0.0840    1.1070   -1.2810 C   0  0
   -0.1950    3.9410   -0.6250 F   0  0
    1.0960    3.6560    1.1820 F   0  0
   -0.8960    2.6410    1.0590 F   0  0
   -1.1840    0.3870   -0.5290 C   0  0
   -2.5000    0.8460   -0.4450 N   0  0
   -1.1190   -0.8110    0.1890 C   0  0
   -3.1700   -0.0900    0.3180 C   0  0
   -2.3340   -1.1270    0.7230 C   0  0
   -4.5140   -0.1760    0.7480 C   0  0
   -2.7560   -2.1950    1.4980 N   0  0
   -5.0020   -1.2150    1.5220 N   0  0
   -4.1000   -2.2150    1.8850 C   0  0
   -4.5370   -3.2400    2.6370 N   0  0
   -5.9490   -3.3280    3.0840 C   0  0
   -3.6330   -4.3380    3.0590 C   0  0
   -6.4980   -4.7660    2.9470 C   0  0
   -4.3140   -5.7170    2.9240 C   0  0
   -5.6020   -5.7050    3.5270 O   0  0
    5.2110    3.4530   -0.3070 H   0  0
    6.4530    3.8300   -4.4140 H   0  0
    4.8380    2.0720   -5.0680 H   0  0
    3.5100   -0.2720   -3.1600 H   0  0
    2.1520    0.9320   -3.0570 H   0  0
    3.0450    0.6970   -4.5570 H   0  0
    1.9790    2.4020   -2.0880 H   0  0
    2.2870    3.4020   -0.7730 H   0  0
    4.9610    1.6250    0.8130 H   0  0
    3.3950    1.1660    1.4750 H   0  0
    3.7030    2.8400    1.0200 H   0  0
    2.9750   -0.5290   -0.0100 H   0  0
    4.0350   -0.4020   -1.4100 H   0  0
    2.3050   -0.1370   -1.5900 H   0  0
    0.8030    1.2250    1.5120 H   0  0
    0.4690    0.3940   -1.8910 H   0  0
   -0.5250    1.8070   -1.9920 H   0  0
   -2.8750    1.6720   -0.8500 H   0  0
   -0.2230   -1.4060    0.3070 H   0  0
   -5.1970    0.6070    0.4570 H   0  0
   -6.5820   -2.6390    2.5200 H   0  0
   -5.9960   -3.0120    4.1270 H   0  0
   -2.7070   -4.3260    2.4810 H   0  0
   -3.3540   -4.1640    4.1000 H   0  0
   -7.4630   -4.8600    3.4490 H   0  0
   -6.6500   -5.0290    1.9000 H   0  0
   -3.7170   -6.4900    3.4080 H   0  0
   -4.4240   -5.9980    1.8750 H   0  0
  1  2  1  0
  2  3  2  0
  2  4  1  0
  3  5  1  0
  4  6  2  0
  5  7  2  0
  5  8  1  0
  7  9  1  0
  8 10  1  0
  8 11  1  0
  8 12  1  0
 10 13  1  0
 13 14  1  0
 13 15  1  0
 13 16  1  0
 15 17  1  0
 15 18  1  0
 15 19  1  0
 16 20  1  0
 20 21  1  0
 20 22  2  0
 21 23  1  0
 22 24  1  0
 23 25  1  0
 24 26  1  0
 25 27  2  0
 26 28  2  0
 28 29  1  0
 29 30  1  0
 29 31  1  0
 30 32  1  0
 31 33  1  0
 32 34  1  0
  6  7  1  0
 23 24  2  0
 27 28  1  0
 33 34  1  0
  3 35  1  0
  4 36  1  0
  6 37  1  0
  9 38  1  0
  9 39  1  0
  9 40  1  0
 10 41  1  0
 10 42  1  0
 11 43  1  0
 11 44  1  0
 11 45  1  0
 12 46  1  0
 12 47  1  0
 12 48  1  0
 14 49  1  0
 16 50  1  0
 16 51  1  0
 21 52  1  0
 22 53  1  0
 25 54  1  0
 30 55  1  0
 30 56  1  0
 31 57  1  0
 31 58  1  0
 32 59  1  0
 32 60  1  0
 33 61  1  0
 33 62  1  0
M  END
> <Name>
CHEMBL3126938

> <IC50 nM>
15

> <Molecule_ChEMBL_ID>
CHEMBL3126938

> <Smiles>
Cc1ccc(F)cc1C(C)(C)CC(O)(Cc1cc2nc(N3CCOCC3)ncc2[nH]1)C(F)(F)F

$$$$
CHEMBL2419302
  SciTegic08162514323D

 36 39  0  0  0  0            999 V2000
    3.3870    3.6700    2.5840 F   0  0
    3.0820    2.4840    2.0610 C   0  0
    4.0740    1.7170    1.4280 C   0  0
    1.7640    1.9980    2.1430 C   0  0
    3.7520    0.4650    0.8770 C   0  0
    1.4410    0.7460    1.5920 C   0  0
    2.4360   -0.0230    0.9570 C   0  0
    2.0920   -1.3560    0.3710 C   0  0
    2.9240   -2.5490    0.4390 C   0  0
    0.9820   -1.6660   -0.3050 C   0  0
    3.9980   -2.5920    0.9920 O   0  0
    2.3220   -3.5680   -0.1880 O   0  0
   -0.1480   -0.7660   -0.6190 C   0  0
    1.0590   -3.1170   -0.7070 C   0  0
   -1.4750   -1.2540   -0.5570 C   0  0
    0.1030    0.5780   -0.9820 C   0  0
   -2.5630   -0.3930   -0.8540 C   0  0
   -0.9770    1.4390   -1.2750 C   0  0
   -3.8380   -0.8520   -0.8180 N   0  0
   -2.3070    0.9650   -1.2030 C   0  0
   -4.9120    0.0000   -0.9470 C   0  0
   -3.3220    1.8090   -1.4820 O   0  0
   -6.0390   -0.4360   -0.9510 O   0  0
   -4.6620    1.4900   -1.0780 C   0  0
    5.0880    2.0860    1.3630 H   0  0
    0.9980    2.5840    2.6290 H   0  0
    4.5230   -0.1170    0.3930 H   0  0
    0.4280    0.3810    1.6580 H   0  0
    1.0510   -3.2330   -1.7810 H   0  0
    0.2620   -3.6950   -0.2640 H   0  0
   -1.6500   -2.2850   -0.2810 H   0  0
    1.1170    0.9510   -1.0350 H   0  0
   -0.7810    2.4670   -1.5550 H   0  0
   -4.0160   -1.8300   -0.7010 H   0  0
   -5.3540    1.9390   -1.7890 H   0  0
   -4.8380    1.9630   -0.1110 H   0  0
  1  2  1  0
  2  3  2  0
  2  4  1  0
  3  5  1  0
  4  6  2  0
  5  7  2  0
  7  8  1  0
  8  9  1  0
  8 10  2  0
  9 11  2  0
  9 12  1  0
 10 13  1  0
 10 14  1  0
 13 15  2  0
 13 16  1  0
 15 17  1  0
 16 18  2  0
 17 19  1  0
 17 20  2  0
 19 21  1  0
 20 22  1  0
 21 23  2  0
 21 24  1  0
  6  7  1  0
 12 14  1  0
 18 20  1  0
 22 24  1  0
  3 25  1  0
  4 26  1  0
  5 27  1  0
  6 28  1  0
 14 29  1  0
 14 30  1  0
 15 31  1  0
 16 32  1  0
 18 33  1  0
 19 34  1  0
 24 35  1  0
 24 36  1  0
M  END
> <Name>
CHEMBL2419302

> <IC50 nM>
10000

> <Molecule_ChEMBL_ID>
CHEMBL2419302

> <Smiles>
O=C1COc2ccc(C3=C(c4ccc(F)cc4)C(=O)OC3)cc2N1

$$$$
CHEMBL3093449
  SciTegic08162514323D

 50 52  0  0  1  0            999 V2000
   -0.7660    0.8610   -0.9320 S   0  0
    0.4590    0.1840   -1.3180 O   0  0
   -1.9490    0.3200   -1.5780 O   0  0
   -0.9670    0.5550    0.7700 N   0  0
   -0.6250    2.5290   -1.3650 C   0  0
   -1.0820   -0.8260    1.2050 C   0  0  2  0  0  0
   -1.1600    2.9860   -2.5840 C   0  0
    0.0230    3.4280   -0.4980 C   0  0
   -1.8770   -0.9120    2.5080 C   0  0
    0.3030   -1.4690    1.3160 C   0  0
   -1.0450    4.3440   -2.9340 C   0  0
   -1.8480    2.0430   -3.5040 C   0  0
    0.1390    4.7830   -0.8520 C   0  0
    0.5920    2.9510    0.7910 C   0  0
   -3.1640   -0.4940    2.2850 F   0  0
   -1.2930   -0.1110    3.4550 F   0  0
   -1.8890   -2.2110    2.9510 F   0  0
    0.2270   -2.9710    1.1250 C   0  0
   -0.3940    5.2420   -2.0680 C   0  0
    1.2150   -3.8980    1.2560 C   0  0
   -0.9280   -3.6890    0.7640 C   0  0
   -0.2730    6.6760   -2.4410 C   0  0
    2.5820   -3.6950    1.6090 C   0  0
    0.7520   -5.1680    0.9980 C   0  0
   -0.5940   -5.0610    0.6860 N   0  0
    3.1090   -2.3830    1.8890 C   0  0
    3.4510   -4.8180    1.6910 C   0  0
    1.5920   -6.3050    1.0700 C   0  0
    3.5350   -1.3280    2.1110 N   0  0
    2.9510   -6.1210    1.4200 C   0  0
   -1.7890    1.0720    1.1170 H   0  0
   -1.6450   -1.2620    0.3810 H   0  0
    0.7540   -1.2480    2.2830 H   0  0
    0.9840   -1.0430    0.5800 H   0  0
   -1.4550    4.6950   -3.8690 H   0  0
   -1.3180    1.1040   -3.6600 H   0  0
   -1.9800    2.5160   -4.4770 H   0  0
   -2.8360    1.8070   -3.1090 H   0  0
    0.6370    5.4750   -0.1860 H   0  0
    1.3130    3.6330    1.2440 H   0  0
    1.0880    1.9940    0.6390 H   0  0
   -0.2150    2.7970    1.5100 H   0  0
   -1.9200   -3.3010    0.5680 H   0  0
    0.2310    7.2190   -1.6410 H   0  0
    0.2420    6.7620   -3.3980 H   0  0
   -1.2680    7.1060   -2.5610 H   0  0
   -1.2090   -5.8030    0.4530 H   0  0
    4.4920   -4.7030    1.9550 H   0  0
    1.2070   -7.2910    0.8630 H   0  0
    3.6090   -6.9730    1.4800 H   0  0
  1  2  2  0
  1  3  2  0
  1  4  1  0
  1  5  1  0
  6  4  1  0
  5  7  2  0
  5  8  1  0
  6  9  1  0
  6 10  1  0
  7 11  1  0
  7 12  1  0
  8 13  2  0
  8 14  1  0
  9 15  1  0
  9 16  1  0
  9 17  1  0
 10 18  1  0
 11 19  2  0
 18 20  1  0
 18 21  2  0
 19 22  1  0
 20 23  2  0
 20 24  1  0
 21 25  1  0
 23 26  1  0
 23 27  1  0
 24 28  2  0
 26 29  3  0
 27 30  2  0
 13 19  1  0
 24 25  1  0
 28 30  1  0
  4 31  1  0
  6 32  1  0
 10 33  1  0
 10 34  1  0
 11 35  1  0
 12 36  1  0
 12 37  1  0
 12 38  1  0
 13 39  1  0
 14 40  1  0
 14 41  1  0
 14 42  1  0
 21 43  1  0
 22 44  1  0
 22 45  1  0
 22 46  1  0
 25 47  1  0
 27 48  1  0
 28 49  1  0
 30 50  1  0
M  END
> <Name>
CHEMBL3093449

> <IC50 nM>
10000

> <Molecule_ChEMBL_ID>
CHEMBL3093449

> <Smiles>
Cc1cc(C)c(S(=O)(=O)NC(Cc2c[nH]c3cccc(C#N)c23)C(F)(F)F)c(C)c1

$$$$
CHEMBL3093440
  SciTegic08162514323D

 42 44  0  0  1  0            999 V2000
    0.8710   -3.3240   -3.8110 Cl  0  0
   -0.0880   -1.9710   -3.3690 C   0  0
    0.4080   -0.9980   -2.4770 C   0  0
   -1.3810   -1.8340   -3.9060 C   0  0
    1.9980   -1.1620   -1.8110 S   0  0
   -0.3930    0.1090   -2.1250 C   0  0
   -2.1800   -0.7300   -3.5550 C   0  0
    2.8870   -0.2560   -2.5200 O   0  0
    2.3980   -2.5550   -1.9180 O   0  0
    2.1390   -0.7520   -0.1250 N   0  0
    0.0780    1.0610   -1.2600 N   0  0
   -1.6860    0.2400   -2.6660 C   0  0
   -3.7560   -0.5680   -4.2090 Cl  0  0
    1.2360   -1.3970    0.8120 C   0  0  2  0  0  0
    1.3030   -0.7110    2.1780 C   0  0
    1.5230   -2.8970    0.8890 C   0  0
    0.8710    0.7380    2.0860 C   0  0
   -0.3890    1.2290    2.0490 C   0  0
    1.7170    1.8630    2.0210 C   0  0
   -0.4140    2.5980    1.9650 C   0  0
   -1.5860    0.4750    2.0900 C   0  0
    0.9060    3.0230    1.9450 N   0  0
   -1.6310    3.3160    1.9160 C   0  0
   -2.8240    1.1660    2.0430 C   0  0
   -2.8480    2.5860    1.9550 C   0  0
   -1.7640   -2.5800   -4.5900 H   0  0
    3.1050   -0.9220    0.1890 H   0  0
    1.0430    1.1110   -1.0000 H   0  0
   -0.5490    1.7320   -0.8650 H   0  0
   -2.3030    1.0880   -2.4020 H   0  0
    0.2710   -1.2130    0.3360 H   0  0
    2.3110   -0.7660    2.5860 H   0  0
    0.6740   -1.2320    2.9000 H   0  0
    1.2420   -3.3910   -0.0410 H   0  0
    2.5820   -3.0760    1.0800 H   0  0
    0.9550   -3.3560    1.6970 H   0  0
    2.7990    1.8810    2.0250 H   0  0
   -1.5700   -0.6040    2.1560 H   0  0
    1.2270    3.9610    1.8910 H   0  0
   -1.6410    4.3950    1.8500 H   0  0
   -3.7520    0.6130    2.0720 H   0  0
   -3.7910    3.1070    1.9200 H   0  0
  1  2  1  0
  2  3  2  0
  2  4  1  0
  3  5  1  0
  3  6  1  0
  4  7  2  0
  5  8  2  0
  5  9  2  0
  5 10  1  0
  6 11  1  0
  6 12  2  0
  7 13  1  0
 10 14  1  0
 14 15  1  0
 14 16  1  0
 15 17  1  0
 17 18  1  0
 17 19  2  0
 18 20  1  0
 18 21  2  0
 19 22  1  0
 20 23  2  0
 21 24  1  0
 23 25  1  0
  7 12  1  0
 20 22  1  0
 24 25  2  0
  4 26  1  0
 10 27  1  0
 11 28  1  0
 11 29  1  0
 12 30  1  0
 14 31  1  0
 15 32  1  0
 15 33  1  0
 16 34  1  0
 16 35  1  0
 16 36  1  0
 19 37  1  0
 21 38  1  0
 22 39  1  0
 23 40  1  0
 24 41  1  0
 25 42  1  0
M  END
> <Name>
CHEMBL3093440

> <IC50 nM>
5

> <Molecule_ChEMBL_ID>
CHEMBL3093440

> <Smiles>
CC(Cc1c[nH]c2ccccc12)NS(=O)(=O)c1c(N)cc(Cl)cc1Cl

$$$$
CHEMBL3094476
  SciTegic08162514323D

 54 55  0  0  1  0            999 V2000
   -2.0610   -0.3750    1.0180 S   0  0
   -2.0760    0.5680    2.1210 O   0  0
   -3.3600   -0.5430    0.3890 O   0  0
   -1.0260    0.3220   -0.1950 N   0  0
   -1.5470   -1.9120    1.6250 C   0  0
   -1.4260    1.5860   -0.7870 C   0  0  2  0  0  0
   -0.6990   -1.9760    2.7460 C   0  0
   -1.9790   -3.0940    0.9960 C   0  0
   -0.8670    1.7130   -2.2050 C   0  0
   -1.0200    2.7520    0.1130 C   0  0
   -0.2830   -3.2270    3.2380 C   0  0
   -0.2400   -0.7300    3.4140 C   0  0
   -1.5610   -4.3440    1.4900 C   0  0
   -2.8750   -3.0330   -0.1900 C   0  0
    0.6170    1.7680   -2.2050 C   0  0
   -1.6760    4.0700   -0.2970 C   0  0
   -0.7130   -4.4100    2.6110 C   0  0
    1.2750    3.0100   -2.2050 C   0  0
    1.3650    0.5760   -2.2050 C   0  0
   -0.2740   -5.7300    3.1310 C   0  0
    2.6820    3.0610   -2.2050 C   0  0
    2.7690    0.6270   -2.2050 C   0  0
    3.4280    1.8690   -2.2050 C   0  0
    3.3770    4.3750   -2.2050 C   0  0
    3.5590   -0.6330   -2.2050 C   0  0
   -0.0760    0.4300    0.1850 H   0  0
   -2.5100    1.4750   -0.8110 H   0  0
   -1.2640    2.6020   -2.6970 H   0  0
   -1.2010    0.8830   -2.8280 H   0  0
   -1.2330    2.5240    1.1580 H   0  0
    0.0640    2.8560    0.1440 H   0  0
    0.3670   -3.2770    4.0980 H   0  0
    0.1070    0.0430    2.7300 H   0  0
    0.5760   -0.9650    4.0980 H   0  0
   -1.0570   -0.3120    4.0040 H   0  0
   -1.8910   -5.2520    1.0080 H   0  0
   -2.5800   -2.2950   -0.9360 H   0  0
   -3.8890   -2.7950    0.1330 H   0  0
   -2.9010   -4.0080   -0.6780 H   0  0
   -1.3650    4.3620   -1.2990 H   0  0
   -2.7640    3.9850   -0.2740 H   0  0
   -1.3910    4.8710    0.3870 H   0  0
    0.7010    3.9260   -2.2050 H   0  0
    0.8590   -0.3790   -2.2050 H   0  0
   -0.6560   -6.5840    2.5720 H   0  0
   -0.5940   -5.8380    4.1680 H   0  0
    0.8160   -5.7830    3.1130 H   0  0
    4.5080    1.9080   -2.2050 H   0  0
    4.4650    4.3050   -2.2110 H   0  0
    3.0840    4.9420   -1.3220 H   0  0
    3.0760    4.9450   -3.0840 H   0  0
    2.9570   -1.5410   -2.1820 H   0  0
    4.2190   -0.6480   -1.3380 H   0  0
    4.1840   -0.6700   -3.1000 H   0  0
  1  2  2  0
  1  3  2  0
  1  4  1  0
  1  5  1  0
  6  4  1  0
  5  7  2  0
  5  8  1  0
  6  9  1  0
  6 10  1  0
  7 11  1  0
  7 12  1  0
  8 13  2  0
  8 14  1  0
  9 15  1  0
 10 16  1  0
 11 17  2  0
 15 18  2  0
 15 19  1  0
 17 20  1  0
 18 21  1  0
 19 22  2  0
 21 23  2  0
 21 24  1  0
 22 25  1  0
 13 17  1  0
 22 23  1  0
  4 26  1  0
  6 27  1  0
  9 28  1  0
  9 29  1  0
 10 30  1  0
 10 31  1  0
 11 32  1  0
 12 33  1  0
 12 34  1  0
 12 35  1  0
 13 36  1  0
 14 37  1  0
 14 38  1  0
 14 39  1  0
 16 40  1  0
 16 41  1  0
 16 42  1  0
 18 43  1  0
 19 44  1  0
 20 45  1  0
 20 46  1  0
 20 47  1  0
 23 48  1  0
 24 49  1  0
 24 50  1  0
 24 51  1  0
 25 52  1  0
 25 53  1  0
 25 54  1  0
M  END
> <Name>
CHEMBL3094476

> <IC50 nM>
11

> <Molecule_ChEMBL_ID>
CHEMBL3094476

> <Smiles>
CCC(Cc1cc(C)cc(C)c1)NS(=O)(=O)c1c(C)cc(C)cc1C

$$$$
CHEMBL4166499
  SciTegic08162514323D

 74 78  0  0  1  0            999 V2000
   -6.5840   -1.9040    0.3690 O   0  0
   -5.3870   -1.7500    0.3100 C   0  0
   -4.5490   -1.8630    1.5120 C   0  0
   -4.6930   -1.4430   -0.9920 C   0  0
   -3.2750   -1.4220    1.5510 C   0  0
   -3.5200   -0.4650   -0.8260 C   0  0
   -2.6430   -0.7190    0.3980 C   0  0
   -2.4710   -1.6450    2.8120 C   0  0
   -1.3480   -0.3010    0.4510 C   0  0
   -0.9920   -1.8130    2.4820 C   0  0
   -0.6970    0.5180   -0.6640 C   0  0  1  0  0  0
   -0.4770   -0.6150    1.6680 C   0  0  1  0  0  0
   -0.9690    1.9690   -0.4670 C   0  0
    0.8110    0.2360   -0.8650 C   0  0
    0.9840   -0.9120    1.2870 C   0  0  1  0  0  0
   -1.6990    2.4020    0.6540 C   0  0
   -0.4980    2.9060   -1.4010 C   0  0
    1.6090    0.2050    0.4470 C   0  0  1  0  0  0
    1.9880   -1.0680    2.4340 C   0  0
   -1.9570    3.7710    0.8400 C   0  0
   -0.7540    4.2750   -1.2150 C   0  0
    3.0940   -0.2520    0.3920 C   0  0  2  0  0  0
    1.5160    1.5490    1.1930 C   0  0
    3.3500   -0.6490    1.8590 C   0  0
   -1.4840    4.7090   -0.0940 C   0  0
    3.9530    0.8100    0.0080 O   0  0
    3.3300   -1.3850   -0.5180 C   0  0
   -1.7560    6.1580    0.1010 C   0  0
    3.5290   -2.3030   -1.2480 C   0  0
   -3.2210    6.5000   -0.1780 C   0  0
    3.7720   -3.4300   -2.1430 C   0  0
    3.0590   -4.6660   -1.5880 C   0  0
    3.2270   -3.0900   -3.5290 C   0  0
    5.2770   -3.6860   -2.2210 C   0  0
   -4.9820   -2.3180    2.3930 H   0  0
   -5.4100   -1.0470   -1.7110 H   0  0
   -4.3260   -2.3810   -1.4080 H   0  0
   -2.9470   -0.5350   -1.7480 H   0  0
   -3.9020    0.5570   -0.7740 H   0  0
   -2.6090   -0.7910    3.4780 H   0  0
   -2.8300   -2.5240    3.3480 H   0  0
   -0.4240   -1.9200    3.4080 H   0  0
   -0.8500   -2.7360    1.9220 H   0  0
   -1.1370    0.2710   -1.6250 H   0  0
   -0.4980    0.2600    2.3180 H   0  0
    0.8990   -0.7270   -1.3730 H   0  0
    1.2520    0.9630   -1.5510 H   0  0
    0.9900   -1.8340    0.7150 H   0  0
   -2.0640    1.6850    1.3770 H   0  0
    0.0650    2.5800   -2.2640 H   0  0
    2.0020   -2.0840    2.8030 H   0  0
    1.7290   -0.4280    3.2640 H   0  0
   -2.5180    4.0980    1.7030 H   0  0
   -0.3890    4.9920   -1.9380 H   0  0
    0.4940    1.7750    1.4920 H   0  0
    1.8690    2.3650    0.5620 H   0  0
    2.1310    1.5330    2.0920 H   0  0
    3.7210    0.1910    2.4320 H   0  0
    4.0900   -1.4340    1.9670 H   0  0
    3.6110    1.1640   -0.8280 H   0  0
   -1.4800    6.4450    1.1170 H   0  0
   -1.0960    6.7420   -0.5390 H   0  0
   -3.4020    7.5640   -0.0350 H   0  0
   -3.4920    6.2270   -1.1970 H   0  0
   -3.8790    5.9550    0.5000 H   0  0
    3.4120   -4.9240   -0.5900 H   0  0
    3.2210   -5.5290   -2.2330 H   0  0
    1.9840   -4.4940   -1.5260 H   0  0
    3.7010   -2.2030   -3.9470 H   0  0
    2.1520   -2.9040   -3.4860 H   0  0
    3.3930   -3.9140   -4.2230 H   0  0
    5.8190   -2.8170   -2.5940 H   0  0
    5.4960   -4.5240   -2.8830 H   0  0
    5.6780   -3.9280   -1.2360 H   0  0
  1  2  2  0
  2  3  1  0
  2  4  1  0
  3  5  2  0
  4  6  1  0
  5  7  1  0
  5  8  1  0
  7  9  2  0
  8 10  1  0
  9 11  1  0
  9 12  1  0
 11 13  1  0
 11 14  1  0
 12 15  1  0
 13 16  2  0
 13 17  1  0
 14 18  1  0
 15 19  1  0
 16 20  1  0
 17 21  2  0
 18 22  1  0
 18 23  1  0
 19 24  1  0
 20 25  2  0
 22 26  1  0
 22 27  1  0
 25 28  1  0
 27 29  3  0
 28 30  1  0
 29 31  1  0
 31 32  1  0
 31 33  1  0
 31 34  1  0
  6  7  1  0
 12 10  1  0
 15 18  1  0
 21 25  1  0
 22 24  1  0
  3 35  1  0
  4 36  1  0
  4 37  1  0
  6 38  1  0
  6 39  1  0
  8 40  1  0
  8 41  1  0
 10 42  1  0
 10 43  1  0
 11 44  1  0
 12 45  1  0
 14 46  1  0
 14 47  1  0
 15 48  1  0
 16 49  1  0
 17 50  1  0
 19 51  1  0
 19 52  1  0
 20 53  1  0
 21 54  1  0
 23 55  1  0
 23 56  1  0
 23 57  1  0
 24 58  1  0
 24 59  1  0
 26 60  1  0
 28 61  1  0
 28 62  1  0
 30 63  1  0
 30 64  1  0
 30 65  1  0
 32 66  1  0
 32 67  1  0
 32 68  1  0
 33 69  1  0
 33 70  1  0
 33 71  1  0
 34 72  1  0
 34 73  1  0
 34 74  1  0
M  END
> <Name>
CHEMBL4166499

> <IC50 nM>
17.5

> <Molecule_ChEMBL_ID>
CHEMBL4166499

> <Smiles>
CCc1ccc([C@H]2C[C@@]3(C)[C@@H](CC[C@@]3(O)C#CC(C)(C)C)[C@@H]3CCC4=CC(=O)CCC4=C32)cc1

$$$$
CHEMBL3261429
  SciTegic08162514323D

 69 73  0  0  1  0            999 V2000
    2.2910   -1.3420    1.5530 S   0  0
    0.8890   -1.6520    1.7700 O   0  0
    3.1350   -2.5230    1.4820 O   0  0
    2.3810   -0.5960   -0.0160 N   0  0
    2.8340   -0.3690    2.8520 C   0  0
    1.7440    0.6990   -0.1910 C   0  0  2  0  0  0
    3.9880    0.4340    2.8440 C   0  0
    2.1990   -0.2460    4.1020 C   0  0
    0.2290    0.5780   -0.0310 C   0  0
    2.1480    1.3170   -1.5310 C   0  0
    4.0140    1.0060    4.0650 N   0  0
    5.0180    0.6560    1.7580 C   0  0
    2.9690    0.6150    4.8090 N   0  0
    0.9300   -0.9000    4.6090 C   0  0
   -0.3200   -0.4260   -0.9530 N   0  0
    2.7070    1.0630    6.1920 C   0  0
   -1.0040   -0.0330   -2.0470 C   0  0
    3.8030    1.9940    6.7110 C   0  0
    1.4410    1.9280    6.2990 C   0  0
   -1.8070   -1.0430   -2.6800 C   0  0
   -0.9590    1.2850   -2.5660 C   0  0
    3.4020    3.3480    6.1350 C   0  0
    1.9080    3.3790    6.4340 C   0  0
   -2.5250   -0.6740   -3.8070 C   0  0
   -1.9300   -2.3670   -2.2600 C   0  0
   -1.7110    1.6130   -3.7230 C   0  0
   -3.1580   -1.8260   -4.1500 N   0  0
   -2.5080    0.6290   -4.3570 C   0  0
   -2.7990   -2.7910   -3.2400 N   0  0
   -4.0000   -2.0140   -5.1990 C   0  0
   -3.6990   -1.4750   -6.4690 C   0  0
   -5.1930   -2.7500   -5.0430 C   0  0
   -4.5510   -1.6660   -7.5200 N   0  0
   -6.0350   -2.9340   -6.1040 N   0  0
   -5.6910   -2.3890   -7.3110 C   0  0
   -6.5080   -2.5700   -8.3280 O   0  0
   -7.6990   -3.3110   -8.1040 C   0  0
    3.3670   -0.5100   -0.2990 H   0  0
    2.1760    1.2620    0.6370 H   0  0
   -0.0290    0.3030    0.9920 H   0  0
   -0.2560    1.5350   -0.2130 H   0  0
    1.7770    0.7340   -2.3750 H   0  0
    3.2320    1.3730   -1.6170 H   0  0
    1.7520    2.3280   -1.6250 H   0  0
    6.0180    0.8810    2.1270 H   0  0
    4.7030    1.4860    1.1250 H   0  0
    5.0840   -0.2320    1.1310 H   0  0
    0.7130   -1.8670    4.1540 H   0  0
    0.0820   -0.2440    4.4180 H   0  0
    1.0040   -1.0470    5.6860 H   0  0
   -0.1910   -1.4020   -0.7830 H   0  0
    2.6270    0.1840    6.8150 H   0  0
    4.7990    1.6950    6.4120 H   0  0
    3.7850    2.0290    7.7910 H   0  0
    0.8710    1.6490    7.1740 H   0  0
    0.7790    1.8050    5.4530 H   0  0
   -0.3550    2.0470   -2.0920 H   0  0
    3.5840    3.3830    5.0680 H   0  0
    3.9340    4.1680    6.5940 H   0  0
    1.3790    4.0430    5.7680 H   0  0
    1.7420    3.7270    7.4440 H   0  0
   -1.5100   -2.9370   -1.4410 H   0  0
   -1.6780    2.6170   -4.1190 H   0  0
   -3.0820    0.8730   -5.2380 H   0  0
   -2.7950   -0.9020   -6.6290 H   0  0
   -5.4590   -3.1800   -4.0860 H   0  0
   -7.4220   -4.3260   -7.8220 H   0  0
   -8.3130   -2.7620   -7.3890 H   0  0
   -8.2500   -3.3630   -9.0430 H   0  0
  1  2  2  0
  1  3  2  0
  1  4  1  0
  1  5  1  0
  4  6  1  0
  5  7  1  0
  5  8  2  0
  6  9  1  0
  6 10  1  0
  7 11  2  0
  7 12  1  0
  8 13  1  0
  8 14  1  0
  9 15  1  0
 13 16  1  0
 15 17  1  0
 16 18  1  0
 16 19  1  0
 17 20  2  0
 17 21  1  0
 18 22  1  0
 19 23  1  0
 20 24  1  0
 20 25  1  0
 21 26  2  0
 24 27  1  0
 24 28  2  0
 25 29  2  0
 27 30  1  0
 30 31  2  0
 30 32  1  0
 31 33  1  0
 32 34  2  0
 33 35  2  0
 35 36  1  0
 36 37  1  0
 11 13  1  0
 22 23  1  0
 26 28  1  0
 27 29  1  0
 34 35  1  0
  4 38  1  0
  6 39  1  0
  9 40  1  0
  9 41  1  0
 10 42  1  0
 10 43  1  0
 10 44  1  0
 12 45  1  0
 12 46  1  0
 12 47  1  0
 14 48  1  0
 14 49  1  0
 14 50  1  0
 15 51  1  0
 16 52  1  0
 18 53  1  0
 18 54  1  0
 19 55  1  0
 19 56  1  0
 21 57  1  0
 22 58  1  0
 22 59  1  0
 23 60  1  0
 23 61  1  0
 25 62  1  0
 26 63  1  0
 28 64  1  0
 31 65  1  0
 32 66  1  0
 37 67  1  0
 37 68  1  0
 37 69  1  0
M  END
> <Name>
CHEMBL3261429

> <IC50 nM>
23

> <Molecule_ChEMBL_ID>
CHEMBL3261429

> <Smiles>
COc1ncc(-n2ncc3c(NC[C@H](C)NS(=O)(=O)c4c(C)nn(C5CCCC5)c4C)cccc32)cn1

$$$$
CHEMBL203151
  SciTegic08162514323D

 48 49  0  0  1  0            999 V2000
    7.4510    1.3560    1.1780 Cl  0  0
    5.7560    1.1190    1.0700 C   0  0
    5.2170   -0.1780    1.1580 C   0  0
    4.9000    2.2230    0.8930 C   0  0
    3.8260   -0.3710    1.0700 C   0  0
    3.5120    2.0290    0.8030 C   0  0
    2.9730    0.7320    0.8910 C   0  0
    1.5040    0.5270    0.7950 C   0  0
    1.0290    0.5330   -0.6580 C   0  0  1  0  0  0
    0.9980    1.8710   -1.1070 O   0  0
    1.9490   -0.2600   -1.5840 C   0  0
   -0.3710   -0.0590   -0.8220 C   0  0
    2.1560   -1.5120   -1.0610 F   0  0
    3.1520    0.3890   -1.6990 F   0  0
    1.3690   -0.3730   -2.8200 F   0  0
   -1.3670    0.4860    0.2010 C   0  0
   -2.5550   -0.0900   -0.4820 C   0  0
   -1.1720   -0.1170    1.5940 C   0  0
   -1.4160    2.0140    0.2230 C   0  0
   -2.8830   -1.4490   -0.3140 C   0  0
   -3.3520    0.7310   -1.3030 C   0  0
   -2.1450   -2.2290    0.4510 O   0  0
   -4.0100   -1.9800   -0.9690 C   0  0
   -4.4770    0.1950   -1.9530 C   0  0
   -2.6620   -3.5040    0.8010 C   0  0
   -4.8050   -1.1600   -1.7850 C   0  0
   -5.2310    0.9730   -2.7290 F   0  0
    5.8610   -1.0350    1.2950 H   0  0
    5.2990    3.2250    0.8260 H   0  0
    3.4200   -1.3690    1.1410 H   0  0
    2.8590    2.8810    0.6660 H   0  0
    1.2340   -0.4080    1.2850 H   0  0
    0.9920    1.2990    1.3710 H   0  0
    1.0680    2.4380   -0.3220 H   0  0
   -0.7380    0.0980   -1.8380 H   0  0
   -0.3360   -1.1460   -0.7850 H   0  0
   -2.1230   -0.3320    2.0800 H   0  0
   -0.6150    0.5660    2.2340 H   0  0
   -0.6090   -1.0490    1.5330 H   0  0
   -2.3590    2.3850    0.6230 H   0  0
   -1.3010    2.4180   -0.7830 H   0  0
   -0.6110    2.4180    0.8380 H   0  0
   -3.1000    1.7740   -1.4320 H   0  0
   -4.2660   -3.0210   -0.8420 H   0  0
   -1.9570   -3.9820    1.4810 H   0  0
   -3.6780   -3.3690    1.1760 H   0  0
   -2.7170   -4.1090   -0.1030 H   0  0
   -5.6700   -1.5760   -2.2850 H   0  0
  1  2  1  0
  2  3  2  0
  2  4  1  0
  3  5  1  0
  4  6  2  0
  5  7  2  0
  7  8  1  0
  8  9  1  0
  9 10  1  0
  9 11  1  0
  9 12  1  0
 11 13  1  0
 11 14  1  0
 11 15  1  0
 12 16  1  0
 16 17  1  0
 16 18  1  0
 16 19  1  0
 17 20  2  0
 17 21  1  0
 20 22  1  0
 20 23  1  0
 21 24  2  0
 22 25  1  0
 23 26  2  0
 24 27  1  0
  6  7  1  0
 24 26  1  0
  3 28  1  0
  4 29  1  0
  5 30  1  0
  6 31  1  0
  8 32  1  0
  8 33  1  0
 10 34  1  0
 12 35  1  0
 12 36  1  0
 18 37  1  0
 18 38  1  0
 18 39  1  0
 19 40  1  0
 19 41  1  0
 19 42  1  0
 21 43  1  0
 23 44  1  0
 25 45  1  0
 25 46  1  0
 25 47  1  0
 26 48  1  0
M  END
> <Name>
CHEMBL203151

> <IC50 nM>
99

> <Molecule_ChEMBL_ID>
CHEMBL203151

> <Smiles>
COc1ccc(F)cc1C(C)(C)C[C@@](O)(Cc1ccc(Cl)cc1)C(F)(F)F

$$$$
CHEMBL3261408
  SciTegic08162514323D

 59 62  0  0  1  0            999 V2000
   -0.5800   -3.6580    0.1170 S   0  0
   -1.6270   -4.6640    0.1640 O   0  0
    0.2700   -3.7700   -1.0570 O   0  0
   -1.3930   -2.1270   -0.0230 N   0  0
    0.4100   -3.8380    1.5210 C   0  0
   -2.1350   -1.8570   -1.2420 C   0  0  2  0  0  0
    0.5470   -5.1020    2.1290 C   0  0
    1.0780   -2.7230    2.0590 C   0  0
   -2.5000   -0.3750   -1.3300 C   0  0
   -3.3570   -2.7720   -1.3380 C   0  0
    1.3520   -5.2460    3.2730 C   0  0
   -0.1560   -6.2850    1.5680 C   0  0
    1.8830   -2.8690    3.2010 C   0  0
    0.9400   -1.3850    1.4220 C   0  0
   -1.2950    0.4570   -1.4530 N   0  0
    2.0220   -4.1310    3.8090 C   0  0
   -1.4060    1.7990   -1.5230 C   0  0
    2.8710   -4.2850    5.0180 C   0  0
   -0.1720    2.5250   -1.6310 C   0  0
   -2.6480    2.4820   -1.4940 C   0  0
   -0.2480    3.9080   -1.7050 C   0  0
    1.1040    1.9610   -1.6700 C   0  0
   -2.6740    3.8980   -1.5720 C   0  0
    1.0550    4.2750   -1.7970 N   0  0
   -1.4670    4.6290   -1.6800 C   0  0
    1.8180    3.1350   -1.7730 N   0  0
    1.5410    5.5410   -1.8930 C   0  0
    2.5800    5.8420   -2.7990 C   0  0
    1.0120    6.5700   -1.0900 C   0  0
    3.0800    7.1080   -2.9120 N   0  0
    1.5370    7.8670   -1.2170 C   0  0
    2.5740    8.1090   -2.1390 C   0  0
    3.0700    9.3380   -2.2600 F   0  0
   -2.0290   -2.0020    0.7770 H   0  0
   -1.3980   -2.1190   -2.0000 H   0  0
   -3.0630   -0.0630   -0.4510 H   0  0
   -3.1520   -0.1890   -2.1840 H   0  0
   -3.0530   -3.8110   -1.4690 H   0  0
   -3.9690   -2.6930   -0.4390 H   0  0
   -3.9790   -2.4960   -2.1900 H   0  0
    1.4570   -6.2150    3.7400 H   0  0
   -0.0820   -6.3790    0.4840 H   0  0
   -1.2150   -6.2340    1.8260 H   0  0
    0.2500   -7.1930    2.0120 H   0  0
    2.3990   -2.0140    3.6130 H   0  0
    0.9860   -1.4000    0.3320 H   0  0
    1.7310   -0.7290    1.7810 H   0  0
   -0.0160   -0.9450    1.7090 H   0  0
   -0.3930    0.0270   -1.4840 H   0  0
    3.3460   -3.3610    5.3540 H   0  0
    3.6600   -5.0100    4.8160 H   0  0
    2.2700   -4.6680    5.8420 H   0  0
   -3.5780    1.9390   -1.4120 H   0  0
    1.4790    0.9470   -1.6330 H   0  0
   -3.6190    4.4220   -1.5510 H   0  0
   -1.4790    5.7070   -1.7380 H   0  0
    3.0000    5.0660   -3.4260 H   0  0
    0.2170    6.3810   -0.3830 H   0  0
    1.1450    8.6720   -0.6090 H   0  0
  1  2  2  0
  1  3  2  0
  1  4  1  0
  1  5  1  0
  4  6  1  0
  5  7  2  0
  5  8  1  0
  6  9  1  0
  6 10  1  0
  7 11  1  0
  7 12  1  0
  8 13  2  0
  8 14  1  0
  9 15  1  0
 11 16  2  0
 15 17  1  0
 16 18  1  0
 17 19  2  0
 17 20  1  0
 19 21  1  0
 19 22  1  0
 20 23  2  0
 21 24  1  0
 21 25  2  0
 22 26  2  0
 24 27  1  0
 27 28  2  0
 27 29  1  0
 28 30  1  0
 29 31  2  0
 30 32  2  0
 32 33  1  0
 13 16  1  0
 23 25  1  0
 24 26  1  0
 31 32  1  0
  4 34  1  0
  6 35  1  0
  9 36  1  0
  9 37  1  0
 10 38  1  0
 10 39  1  0
 10 40  1  0
 11 41  1  0
 12 42  1  0
 12 43  1  0
 12 44  1  0
 13 45  1  0
 14 46  1  0
 14 47  1  0
 14 48  1  0
 15 49  1  0
 18 50  1  0
 18 51  1  0
 18 52  1  0
 20 53  1  0
 22 54  1  0
 23 55  1  0
 25 56  1  0
 28 57  1  0
 29 58  1  0
 31 59  1  0
M  END
> <Name>
CHEMBL3261408

> <IC50 nM>
2.3

> <Molecule_ChEMBL_ID>
CHEMBL3261408

> <Smiles>
Cc1cc(C)c(S(=O)(=O)N[C@@H](C)CNc2cccc3c2cnn3-c2ccc(F)nc2)c(C)c1

$$$$
CHEMBL3582122
  SciTegic08162514323D

 51 55  0  0  0  0            999 V2000
    3.7890   -2.3520   -0.5860 O   0  0
    2.8540   -1.8890    0.0260 C   0  0
    2.0550   -2.7540    0.9900 C   0  0
    2.4470   -0.4340   -0.1520 C   0  0
    0.6060   -2.4220    0.9960 N   0  0
    2.2090   -4.2330    0.6100 C   0  0
    2.6090   -2.5410    2.4010 C   0  0
    0.9770   -0.2270   -0.0040 C   0  0
    3.1780    0.3850    0.9180 C   0  0
    2.9080    0.0290   -1.5450 C   0  0
    0.1410   -1.2270    0.5510 C   0  0
    0.3730    0.9860   -0.4100 C   0  0
   -1.2710   -1.0630    0.6950 C   0  0
   -1.0210    1.1640   -0.2730 C   0  0
   -1.8520    0.1500    0.2760 C   0  0
   -2.3240   -1.9960    1.2480 C   0  0
   -1.6290    2.4390   -0.7110 C   0  0
   -3.3400    0.1600    0.4980 C   0  0
   -3.6660   -1.2930    0.9220 C   0  0
   -1.3500    2.9180   -2.0410 N   0  0
   -2.4360    3.1560    0.1130 C   0  0
   -1.9100    4.0920   -2.4430 C   0  0
   -0.5700    2.3480   -3.0140 C   0  0
   -3.0450    4.4410   -0.3400 C   0  0
   -1.4670    4.2600   -3.7030 N   0  0
   -2.7990    4.9100   -1.5860 C   0  0
   -0.6760    3.2260   -4.0370 N   0  0
   -0.0040   -3.1290    1.3620 H   0  0
    1.8400   -4.4340   -0.3960 H   0  0
    1.6540   -4.8670    1.3010 H   0  0
    3.2560   -4.5330    0.6470 H   0  0
    2.3280   -1.5590    2.7810 H   0  0
    2.2360   -3.3050    3.0820 H   0  0
    3.6990   -2.5980    2.3990 H   0  0
    2.7600    0.2230    1.9100 H   0  0
    3.1130    1.4490    0.6970 H   0  0
    4.2340    0.1150    0.9530 H   0  0
    2.3630   -0.4730   -2.3420 H   0  0
    3.9710   -0.1760   -1.6850 H   0  0
    2.7600    1.1030   -1.6620 H   0  0
    0.9790    1.7790   -0.8260 H   0  0
   -2.1870   -2.1020    2.3150 H   0  0
   -2.2680   -2.9750    0.7930 H   0  0
   -3.8710    0.4470   -0.3980 H   0  0
   -3.5840    0.8610    1.2830 H   0  0
   -4.3480   -1.3220    1.7600 H   0  0
   -4.1520   -1.8070    0.1040 H   0  0
   -2.6520    2.8080    1.1130 H   0  0
   -0.0080    1.4240   -2.9800 H   0  0
   -3.6860    4.9980    0.3280 H   0  0
   -3.2250    5.8380   -1.9390 H   0  0
  1  2  2  0
  2  3  1  0
  2  4  1  0
  3  5  1  0
  3  6  1  0
  3  7  1  0
  4  8  1  0
  4  9  1  0
  4 10  1  0
  5 11  1  0
  8 12  2  0
 11 13  2  0
 12 14  1  0
 13 15  1  0
 13 16  1  0
 14 17  1  0
 15 18  1  0
 16 19  1  0
 17 20  1  0
 17 21  2  0
 20 22  1  0
 20 23  1  0
 21 24  1  0
 22 25  2  0
 22 26  1  0
 23 27  2  0
  8 11  1  0
 14 15  2  0
 18 19  1  0
 24 26  2  0
 25 27  1  0
  5 28  1  0
  6 29  1  0
  6 30  1  0
  6 31  1  0
  7 32  1  0
  7 33  1  0
  7 34  1  0
  9 35  1  0
  9 36  1  0
  9 37  1  0
 10 38  1  0
 10 39  1  0
 10 40  1  0
 12 41  1  0
 16 42  1  0
 16 43  1  0
 18 44  1  0
 18 45  1  0
 19 46  1  0
 19 47  1  0
 21 48  1  0
 23 49  1  0
 24 50  1  0
 26 51  1  0
M  END
> <Name>
CHEMBL3582122

> <IC50 nM>
91

> <Molecule_ChEMBL_ID>
CHEMBL3582122

> <Smiles>
CC1(C)Nc2c(cc(-c3cccc4nncn34)c3c2CCC3)C(C)(C)C1=O

$$$$
CHEMBL3582119
  SciTegic08162514323D

 52 56  0  0  0  0            999 V2000
    3.7950   -2.4140   -0.4880 O   0  0
    2.8570   -1.9510    0.1250 C   0  0
    2.0610   -2.8160    1.0880 C   0  0
    2.4530   -0.4960   -0.0550 C   0  0
    0.6110   -2.4840    1.0960 N   0  0
    2.2150   -4.2950    0.7070 C   0  0
    2.6150   -2.6020    2.4980 C   0  0
    0.9820   -0.2870    0.0940 C   0  0
    3.1840    0.3220    1.0160 C   0  0
    2.9140   -0.0310   -1.4450 C   0  0
    0.1460   -1.2890    0.6510 C   0  0
    0.3790    0.9260   -0.3120 C   0  0
   -1.2680   -1.1250    0.7930 C   0  0
   -1.0160    1.1040   -0.1760 C   0  0
   -1.8460    0.0880    0.3730 C   0  0
   -2.3180   -2.0570    1.3460 C   0  0
   -1.6230    2.3770   -0.6130 C   0  0
   -3.3340    0.0980    0.5960 C   0  0
   -3.6600   -1.3550    1.0200 C   0  0
   -1.3540    2.8560   -1.9470 N   0  0
   -2.4240    3.0980    0.2150 C   0  0
   -1.9000    4.0180   -2.3590 C   0  0
   -0.6000    2.2970   -2.9080 C   0  0
   -3.0270    4.3810   -0.2420 C   0  0
   -1.4920    4.2400   -3.6430 N   0  0
   -2.7810    4.8380   -1.4900 C   0  0
   -0.6900    3.1840   -3.9860 C   0  0
    0.0020   -3.1910    1.4590 H   0  0
    1.8460   -4.4960   -0.2970 H   0  0
    1.6600   -4.9300    1.3990 H   0  0
    3.2620   -4.5960    0.7460 H   0  0
    2.3340   -1.6190    2.8790 H   0  0
    2.2420   -3.3670    3.1800 H   0  0
    3.7050   -2.6600    2.4980 H   0  0
    2.7660    0.1600    2.0080 H   0  0
    3.1190    1.3890    0.7950 H   0  0
    4.2400    0.0530    1.0510 H   0  0
    2.3670   -0.5330   -2.2440 H   0  0
    3.9770   -0.2380   -1.5880 H   0  0
    2.7660    1.0410   -1.5640 H   0  0
    0.9840    1.7170   -0.7280 H   0  0
   -2.1820   -2.1640    2.4120 H   0  0
   -2.2620   -3.0350    0.8910 H   0  0
   -3.8650    0.3850   -0.2990 H   0  0
   -3.5780    0.8010    1.3810 H   0  0
   -4.3420   -1.3850    1.8600 H   0  0
   -4.1470   -1.8690    0.2010 H   0  0
   -2.6330    2.7520    1.2170 H   0  0
   -0.0530    1.3650   -2.8380 H   0  0
   -3.6620    4.9440    0.4260 H   0  0
   -3.2090    5.7660   -1.8420 H   0  0
   -0.2170    3.0880   -4.9550 H   0  0
  1  2  2  0
  2  3  1  0
  2  4  1  0
  3  5  1  0
  3  6  1  0
  3  7  1  0
  4  8  1  0
  4  9  1  0
  4 10  1  0
  5 11  1  0
  8 12  2  0
 11 13  2  0
 12 14  1  0
 13 15  1  0
 13 16  1  0
 14 17  1  0
 15 18  1  0
 16 19  1  0
 17 20  1  0
 17 21  2  0
 20 22  1  0
 20 23  1  0
 21 24  1  0
 22 25  2  0
 22 26  1  0
 23 27  2  0
  8 11  1  0
 14 15  2  0
 18 19  1  0
 24 26  2  0
 25 27  1  0
  5 28  1  0
  6 29  1  0
  6 30  1  0
  6 31  1  0
  7 32  1  0
  7 33  1  0
  7 34  1  0
  9 35  1  0
  9 36  1  0
  9 37  1  0
 10 38  1  0
 10 39  1  0
 10 40  1  0
 12 41  1  0
 16 42  1  0
 16 43  1  0
 18 44  1  0
 18 45  1  0
 19 46  1  0
 19 47  1  0
 21 48  1  0
 23 49  1  0
 24 50  1  0
 26 51  1  0
 27 52  1  0
M  END
> <Name>
CHEMBL3582119

> <IC50 nM>
21

> <Molecule_ChEMBL_ID>
CHEMBL3582119

> <Smiles>
CC1(C)Nc2c(cc(-c3cccc4nccn34)c3c2CCC3)C(C)(C)C1=O

$$$$
CHEMBL210185
  SciTegic08162514323D

 63 67  0  0  1  0            999 V2000
    2.6200    0.9360   -2.4110 F   0  0
    2.4410    1.6650   -1.2630 C   0  0
    3.5630    1.5670   -0.4800 F   0  0
    2.2220    2.9790   -1.5850 F   0  0
    1.2360    1.1200   -0.4960 C   0  0  3  0  0  0
    0.1400    1.0620   -1.3810 O   0  0
    1.6160   -0.2750   -0.0780 C   0  0
    0.8460    1.9990    0.6920 C   0  0
    1.8640   -0.5330    1.0770 O   0  0
    1.6780   -1.2520   -1.0310 N   0  0
   -0.6410    1.8730    1.0610 C   0  0  3  0  0  0
    2.1110   -2.4780   -0.7070 C   0  0
   -1.5020    2.3830   -0.0550 C   0  0
   -0.9260    2.7210    2.2990 C   0  0
   -0.9070    0.3830    1.3720 C   0  0
    1.4870   -3.6280   -1.2610 C   0  0
    3.1990   -2.6390    0.1920 C   0  0
   -2.6610    1.6720   -0.5020 C   0  0
   -1.1710    3.6170   -0.6830 C   0  0
   -0.3600    4.1550    2.2280 C   0  0
   -2.3550    3.3030    2.3520 C   0  0
   -2.4040    0.0860    1.4540 C   0  0
    1.9490   -4.9230   -0.9130 C   0  0
    3.6620   -3.9310    0.5380 C   0  0
   -3.4480    2.2020   -1.5580 C   0  0
   -3.0710    0.3780    0.1040 C   0  0
   -1.9610    4.1320   -1.7340 C   0  0
   -1.7890    4.7290    2.2220 C   0  0
    3.0300   -5.0680   -0.0190 C   0  0
    1.3200   -6.1560   -1.4710 C   0  0
   -3.1000    3.4240   -2.1720 C   0  0
    3.4700   -6.4540    0.3050 C   0  0
    1.7630   -7.3200   -1.1350 N   0  0
    0.1600   -6.0750   -2.4320 C   0  0
    4.3890   -6.6750    1.0590 O   0  0
    2.8760   -7.5530   -0.2170 O   0  0
   -0.3210    0.2260   -1.2120 H   0  0
    1.1090    3.0400    0.5040 H   0  0
    1.4760    1.7830    1.5540 H   0  0
    1.4000   -1.0550   -1.9720 H   0  0
   -0.6480    2.2040    3.2180 H   0  0
   -0.4200    0.0990    2.3060 H   0  0
   -0.4680   -0.2500    0.5990 H   0  0
    0.6590   -3.5180   -1.9470 H   0  0
    3.6880   -1.7770    0.6260 H   0  0
   -0.3060    4.1780   -0.3590 H   0  0
    0.2330    4.3880    1.3430 H   0  0
    0.2520    4.4520    3.0800 H   0  0
   -2.9000    3.1060    3.2760 H   0  0
   -3.0220    2.9980    1.5450 H   0  0
   -2.8610    0.6920    2.2380 H   0  0
   -2.5690   -0.9550    1.7320 H   0  0
    4.4910   -4.0390    1.2230 H   0  0
   -4.3240    1.6690   -1.9010 H   0  0
   -2.8160   -0.4170   -0.5980 H   0  0
   -4.1550    0.3450    0.2260 H   0  0
   -1.6940    5.0680   -2.2030 H   0  0
   -2.0240    5.4000    3.0480 H   0  0
   -2.0710    5.2590    1.3120 H   0  0
   -3.7050    3.8170   -2.9760 H   0  0
   -0.1420   -7.0780   -2.7320 H   0  0
   -0.6640   -5.5280   -1.9730 H   0  0
    0.4600   -5.5340   -3.3290 H   0  0
  1  2  1  0
  2  3  1  0
  2  4  1  0
  2  5  1  0
  5  6  1  0
  5  7  1  0
  5  8  1  0
  7  9  2  0
  7 10  1  0
  8 11  1  0
 10 12  1  0
 11 13  1  0
 11 14  1  0
 11 15  1  0
 12 16  2  0
 12 17  1  0
 13 18  2  0
 13 19  1  0
 14 20  1  0
 14 21  1  0
 15 22  1  0
 16 23  1  0
 17 24  2  0
 18 25  1  0
 18 26  1  0
 19 27  2  0
 20 28  1  0
 23 29  2  0
 23 30  1  0
 25 31  2  0
 29 32  1  0
 30 33  2  0
 30 34  1  0
 32 35  2  0
 32 36  1  0
 21 28  1  0
 22 26  1  0
 24 29  1  0
 27 31  1  0
 33 36  1  0
  6 37  1  0
  8 38  1  0
  8 39  1  0
 10 40  1  0
 14 41  1  0
 15 42  1  0
 15 43  1  0
 16 44  1  0
 17 45  1  0
 19 46  1  0
 20 47  1  0
 20 48  1  0
 21 49  1  0
 21 50  1  0
 22 51  1  0
 22 52  1  0
 24 53  1  0
 25 54  1  0
 26 55  1  0
 26 56  1  0
 27 57  1  0
 28 58  1  0
 28 59  1  0
 31 60  1  0
 34 61  1  0
 34 62  1  0
 34 63  1  0
M  END
> <Name>
CHEMBL210185

> <IC50 nM>
9.55

> <Molecule_ChEMBL_ID>
CHEMBL210185

> <Smiles>
Cc1noc(=O)c2ccc(NC(=O)C(O)(CC3(C4CCC4)CCCc4ccccc43)C(F)(F)F)cc12

$$$$
CHEMBL4068008
  SciTegic08162514323D

 44 46  0  0  1  0            999 V2000
    1.8520    0.5330   -0.9940 O   0  0
    1.8500   -0.7700   -0.6740 C   0  0
    3.1050    1.1640   -1.2070 C   0  0
    3.0530   -1.4360   -0.5570 N   0  0
    0.6130   -1.4320   -0.4550 C   0  0
    2.8810    2.6350   -1.5610 C   0  0
    3.0720   -2.7720   -0.2300 C   0  0
    0.6250   -2.8260   -0.1350 C   0  0
   -0.6820   -0.6890   -0.5550 C   0  0  1  0  0  0
    1.8750   -3.4920   -0.0140 C   0  0
   -0.5310   -3.4960    0.0470 N   0  0
   -1.9160   -1.5780   -0.4100 C   0  0
   -0.7210    0.3730    0.4840 C   0  0
   -1.7680   -2.8950   -0.1020 C   0  0
   -3.2340   -1.0020   -0.6000 C   0  0
   -0.8950    1.7210    0.1130 C   0  0
   -0.5840    0.0200    1.8380 C   0  0
   -2.9790   -3.7730    0.0980 C   0  0
   -4.2890   -0.5390   -0.7520 N   0  0
   -1.0230    2.0530   -1.1560 O   0  0
   -0.9300    2.7150    1.1090 C   0  0
   -0.6210    1.0100    2.8300 C   0  0
   -1.1660    3.4300   -1.4730 C   0  0
   -0.7930    2.3560    2.4630 C   0  0
   -0.8320    3.3830    3.4710 C   0  0
   -0.8650    4.2110    4.2830 N   0  0
    3.6930    1.0720   -0.2950 H   0  0
    3.6150    0.6460   -2.0200 H   0  0
    3.8320    3.1430   -1.7210 H   0  0
    2.2750    2.7270   -2.4630 H   0  0
    2.3590    3.1500   -0.7540 H   0  0
    4.0310   -3.2620   -0.1460 H   0  0
   -0.7290   -0.2150   -1.5390 H   0  0
    1.9360   -4.5390    0.2360 H   0  0
   -0.5060   -4.4730    0.2810 H   0  0
   -0.4510   -1.0120    2.1210 H   0  0
   -3.7620   -3.6060   -0.6430 H   0  0
   -3.4080   -3.5960    1.0840 H   0  0
   -2.6880   -4.8220    0.0430 H   0  0
   -1.0650    3.7460    0.8150 H   0  0
   -0.5140    0.7300    3.8650 H   0  0
   -0.3670    4.0940   -1.1410 H   0  0
   -2.1000    3.7870   -1.0350 H   0  0
   -1.2500    3.5250   -2.5550 H   0  0
  1  2  1  0
  1  3  1  0
  2  4  2  0
  2  5  1  0
  3  6  1  0
  4  7  1  0
  5  8  2  0
  5  9  1  0
  7 10  2  0
  8 11  1  0
  9 12  1  0
  9 13  1  0
 11 14  1  0
 12 15  1  0
 13 16  2  0
 13 17  1  0
 14 18  1  0
 15 19  3  0
 16 20  1  0
 16 21  1  0
 17 22  2  0
 20 23  1  0
 21 24  2  0
 24 25  1  0
 25 26  3  0
  8 10  1  0
 12 14  2  0
 22 24  1  0
  3 27  1  0
  3 28  1  0
  6 29  1  0
  6 30  1  0
  6 31  1  0
  7 32  1  0
  9 33  1  0
 10 34  1  0
 11 35  1  0
 17 36  1  0
 18 37  1  0
 18 38  1  0
 18 39  1  0
 21 40  1  0
 22 41  1  0
 23 42  1  0
 23 43  1  0
 23 44  1  0
M  END
> <Name>
CHEMBL4068008

> <IC50 nM>
6900

> <Molecule_ChEMBL_ID>
CHEMBL4068008

> <Smiles>
CCOc1nccc2c1[C@H](c1ccc(C#N)cc1OC)C(C#N)=C(C)N2

$$$$
CHEMBL4172798
  SciTegic08162514323D

 76 80  0  0  1  0            999 V2000
   -1.2970    4.7070    0.7230 F   0  0
   -0.8180    3.8690   -0.1990 C   0  0
   -0.1560    4.3500   -1.3520 C   0  0
   -0.9860    2.4860   -0.0100 C   0  0
    0.0120    5.6990   -1.5410 N   0  0
    0.3340    3.4300   -2.3070 C   0  0
   -0.5000    1.5780   -0.9610 C   0  0
   -0.0680    6.2660   -2.8960 C   0  0
    0.2740    6.5980   -0.4080 C   0  0
    0.9670    3.8440   -3.4060 F   0  0
    0.1600    2.0490   -2.1090 C   0  0
   -0.6840    0.1040   -0.7540 C   0  0  2  0  0  0
   -1.6290   -0.1780    0.4220 C   0  0
    0.6950   -0.5980   -0.6620 C   0  0
   -2.9590    0.1020    0.3560 C   0  0
   -1.0620   -0.7500    1.7190 C   0  0  2  0  0  0
    1.2830   -0.5470    0.7520 C   0  0  1  0  0  0
   -3.8380   -0.1310    1.5350 C   0  0
   -3.5680    0.7050   -0.9100 C   0  0
    0.3240   -1.4060    1.5720 C   0  0  1  0  0  0
   -2.0550   -1.7320    2.3670 C   0  0
    2.6370   -1.2480    1.0220 C   0  0  2  0  0  0
    1.3300    0.8850    1.3180 C   0  0
   -5.0390    0.4830    1.6310 C   0  0
   -3.3890   -1.0330    2.6640 C   0  0
   -5.0840    0.9710   -0.8530 C   0  0
    1.0740   -1.6130    2.8890 C   0  0
    3.7270   -0.4000    0.7150 O   0  0
    2.8200   -2.4920    0.2700 C   0  0
    2.5590   -1.5020    2.5390 C   0  0
   -5.5370    1.3240    0.5370 C   0  0
    2.9860   -3.4980   -0.3440 C   0  0
   -6.2810    2.2620    0.7480 O   0  0
    3.2190   -4.7360   -1.0900 C   0  0
    2.1410   -4.8890   -2.1600 C   0  0
    3.1680   -5.9240   -0.1310 C   0  0
    4.5940   -4.6720   -1.7580 C   0  0
   -1.4940    2.1230    0.8750 H   0  0
   -0.6800    5.6960   -3.5960 H   0  0
    0.9360    6.3400   -3.3140 H   0  0
   -0.4780    7.2740   -2.8380 H   0  0
    0.7720    6.0390    0.3850 H   0  0
    0.8400    7.4590   -0.7560 H   0  0
   -0.6760    6.9590   -0.0120 H   0  0
    0.5330    1.3480   -2.8420 H   0  0
   -1.1500   -0.2730   -1.6680 H   0  0
    1.3990   -0.1700   -1.3790 H   0  0
    0.5610   -1.6310   -0.9750 H   0  0
   -0.9610    0.0960    2.4040 H   0  0
   -3.0800    1.6600   -1.1090 H   0  0
   -3.3570    0.0590   -1.7620 H   0  0
    0.1930   -2.3750    1.0980 H   0  0
   -2.2190   -2.5900    1.7130 H   0  0
   -1.6460   -2.1290    3.2990 H   0  0
    0.3300    1.2770    1.5080 H   0  0
    1.8280    1.5590    0.6210 H   0  0
    1.8810    0.9080    2.2580 H   0  0
   -5.6480    0.3580    2.5160 H   0  0
   -3.2710   -0.4280    3.5650 H   0  0
   -4.1580   -1.7750    2.8830 H   0  0
   -5.6290    0.0780   -1.1760 H   0  0
   -5.3460    1.7680   -1.5550 H   0  0
    0.8030   -0.8480    3.6060 H   0  0
    0.8220   -2.5680    3.3280 H   0  0
    3.5900   -0.0740   -0.1870 H   0  0
    2.9730   -0.6700    3.0880 H   0  0
    3.1080   -2.3730    2.8520 H   0  0
    2.1510   -4.0600   -2.8690 H   0  0
    1.1500   -4.9280   -1.7070 H   0  0
    2.2850   -5.8110   -2.7250 H   0  0
    3.9300   -5.8520    0.6470 H   0  0
    3.3260   -6.8590   -0.6660 H   0  0
    2.1970   -5.9820    0.3610 H   0  0
    5.3950   -4.5680   -1.0250 H   0  0
    4.6520   -3.8240   -2.4390 H   0  0
    4.7850   -5.5780   -2.3340 H   0  0
  1  2  1  0
  2  3  2  0
  2  4  1  0
  3  5  1  0
  3  6  1  0
  4  7  2  0
  5  8  1  0
  5  9  1  0
  6 10  1  0
  6 11  2  0
 12  7  1  0
 12 13  1  0
 12 14  1  0
 13 15  2  0
 13 16  1  0
 14 17  1  0
 15 18  1  0
 15 19  1  0
 16 20  1  0
 16 21  1  0
 17 22  1  0
 17 23  1  0
 18 24  2  0
 18 25  1  0
 19 26  1  0
 20 27  1  0
 22 28  1  0
 22 29  1  0
 22 30  1  0
 24 31  1  0
 29 32  3  0
 31 33  2  0
 32 34  1  0
 34 35  1  0
 34 36  1  0
 34 37  1  0
  7 11  1  0
 17 20  1  0
 21 25  1  0
 26 31  1  0
 27 30  1  0
  4 38  1  0
  8 39  1  0
  8 40  1  0
  8 41  1  0
  9 42  1  0
  9 43  1  0
  9 44  1  0
 11 45  1  0
 12 46  1  0
 14 47  1  0
 14 48  1  0
 16 49  1  0
 19 50  1  0
 19 51  1  0
 20 52  1  0
 21 53  1  0
 21 54  1  0
 23 55  1  0
 23 56  1  0
 23 57  1  0
 24 58  1  0
 25 59  1  0
 25 60  1  0
 26 61  1  0
 26 62  1  0
 27 63  1  0
 27 64  1  0
 28 65  1  0
 30 66  1  0
 30 67  1  0
 35 68  1  0
 35 69  1  0
 35 70  1  0
 36 71  1  0
 36 72  1  0
 36 73  1  0
 37 74  1  0
 37 75  1  0
 37 76  1  0
M  END
> <Name>
CHEMBL4172798

> <IC50 nM>
43

> <Molecule_ChEMBL_ID>
CHEMBL4172798

> <Smiles>
CN(C)c1c(F)cc([C@H]2C[C@@]3(C)[C@@H](CC[C@@]3(O)C#CC(C)(C)C)[C@@H]3CCC4=CC(=O)CCC4=C32)cc1F

$$$$
CHEMBL4174549
  SciTegic08162514323D

 55 58  0  0  1  0            999 V2000
   -6.3130   -1.4240    0.0350 O   0  0
   -5.1150   -1.2730   -0.0270 C   0  0
   -4.2780   -1.3850    1.1740 C   0  0
   -4.4260   -0.9630   -1.3280 C   0  0
   -3.0020   -0.9430    1.2110 C   0  0
   -3.2500    0.0180   -1.1640 C   0  0
   -2.3710   -0.2420    0.0570 C   0  0
   -2.1970   -1.1700    2.4730 C   0  0
   -1.0720    0.1700    0.1060 C   0  0
   -0.7190   -1.3400    2.1430 C   0  0
   -0.1990   -0.1470    1.3200 C   0  0  1  0  0  0
   -0.4160    0.9820   -1.0120 C   0  0  2  0  0  0
    1.2560   -0.4490    0.9360 C   0  0  1  0  0  0
    1.0840    0.6930   -1.2230 C   0  0
   -0.6840    2.4730   -0.7690 C   0  0
    1.8790    0.6640    0.0880 C   0  0  2  0  0  0
    2.2560   -0.5980    2.0860 C   0  0
   -1.5960    3.0880   -1.8320 C   0  0
    3.3610    0.2130    0.0430 C   0  0  2  0  0  0
    1.7770    2.0100    0.8300 C   0  0
    3.6170   -0.1800    1.5140 C   0  0
    4.2210    1.2700   -0.3460 O   0  0
    3.6030   -0.9260   -0.8610 C   0  0
    3.7970   -1.8460   -1.5900 C   0  0
    4.0390   -2.9730   -2.4880 C   0  0
   -4.7090   -1.8340    2.0570 H   0  0
   -5.1430   -0.5640   -2.0470 H   0  0
   -4.0590   -1.8950   -1.7480 H   0  0
   -2.6840   -0.0450   -2.0900 H   0  0
   -3.6330    1.0350   -1.1030 H   0  0
   -2.3360   -0.3200    3.1390 H   0  0
   -2.5570   -2.0530    3.0060 H   0  0
   -0.1520   -1.4400    3.0680 H   0  0
   -0.5760   -2.2720    1.5940 H   0  0
   -0.2210    0.7300    1.9670 H   0  0
   -0.8710    0.7500   -1.9690 H   0  0
    1.2620   -1.3750    0.3710 H   0  0
    1.1660   -0.2680   -1.7300 H   0  0
    1.5140    1.4280   -1.9040 H   0  0
   -1.0900    2.6350    0.2290 H   0  0
    0.2540    3.0250   -0.6990 H   0  0
    2.2690   -1.6090    2.4650 H   0  0
    1.9880    0.0510    2.9080 H   0  0
   -1.7540    4.1480   -1.6350 H   0  0
   -1.1620    2.9730   -2.8260 H   0  0
   -2.5700    2.6000   -1.8340 H   0  0
    0.7540    2.2290    1.1350 H   0  0
    2.1170    2.8260    0.1930 H   0  0
    2.3980    2.0040    1.7250 H   0  0
    3.9840    0.6640    2.0860 H   0  0
    4.3570   -0.9610    1.6270 H   0  0
    3.8940    1.6070   -1.1950 H   0  0
    5.1090   -3.1740   -2.5620 H   0  0
    3.6580   -2.7480   -3.4840 H   0  0
    3.5410   -3.8690   -2.1170 H   0  0
  1  2  2  0
  2  3  1  0
  2  4  1  0
  3  5  2  0
  4  6  1  0
  5  7  1  0
  5  8  1  0
  7  9  2  0
  8 10  1  0
  9 11  1  0
  9 12  1  0
 11 13  1  0
 12 14  1  0
 12 15  1  0
 13 16  1  0
 13 17  1  0
 15 18  1  0
 16 19  1  0
 16 20  1  0
 17 21  1  0
 19 22  1  0
 19 23  1  0
 23 24  3  0
 24 25  1  0
  6  7  1  0
 11 10  1  0
 14 16  1  0
 19 21  1  0
  3 26  1  0
  4 27  1  0
  4 28  1  0
  6 29  1  0
  6 30  1  0
  8 31  1  0
  8 32  1  0
 10 33  1  0
 10 34  1  0
 11 35  1  0
 12 36  1  0
 13 37  1  0
 14 38  1  0
 14 39  1  0
 15 40  1  0
 15 41  1  0
 17 42  1  0
 17 43  1  0
 18 44  1  0
 18 45  1  0
 18 46  1  0
 20 47  1  0
 20 48  1  0
 20 49  1  0
 21 50  1  0
 21 51  1  0
 22 52  1  0
 25 53  1  0
 25 54  1  0
 25 55  1  0
M  END
> <Name>
CHEMBL4174549

> <IC50 nM>
5000

> <Molecule_ChEMBL_ID>
CHEMBL4174549

> <Smiles>
CC#C[C@]1(O)CC[C@H]2[C@@H]3CCC4=CC(=O)CCC4=C3[C@@H](CC)C[C@@]21C

$$$$
CHEMBL1917414
  SciTegic08162514323D

 75 81  0  0  1  0            999 V2000
   -6.8050   -0.7600    0.1890 S   0  0
   -6.0250    0.4630   -0.7810 C   0  0
   -8.2210   -0.1210   -0.3750 C   0  0
   -4.4550    0.9650   -1.1430 S   0  0
   -6.9160    1.3010   -1.4900 N   0  0
   -8.2130    0.9450   -1.2400 C   0  0
   -9.4710   -0.6640    0.0270 C   0  0
   -3.4770   -0.1500   -0.2130 C   0  0
   -9.4010    1.5250   -1.7500 C   0  0
  -10.6820   -0.1110   -0.4610 C   0  0
   -2.0880   -0.1990   -0.7910 C   0  0
  -10.6470    0.9860   -1.3540 C   0  0
   -1.8950   -0.0020   -1.9670 O   0  0
   -0.9390   -0.5040    0.1450 C   0  0  2  0  0  0
   -0.8420    0.5860    1.0570 O   0  0
    0.4180   -0.7130   -0.5490 C   0  0  2  0  0  0
   -1.1230   -1.8150    0.9390 C   0  0
   -0.8400    1.7640    0.4390 C   0  0
    1.1800   -1.3240    0.6370 C   0  0  1  0  0  0
    1.1740    0.5160   -1.0980 C   0  0
    0.2130   -1.7380   -1.6820 C   0  0
    0.2640   -2.4670    1.0590 C   0  0
   -1.4770    2.0020   -0.5610 O   0  0
   -0.0060    2.7970    1.0370 C   0  0
    2.6270   -1.5490    0.1840 C   0  0  1  0  0  0
    2.4000    0.9780   -0.2700 C   0  0  1  0  0  0
    0.1970    3.9410    0.3280 O   0  0
    0.6410    2.7890    2.2750 C   0  0
    3.3360   -0.1680    0.2870 C   0  0  2  0  0  0
    3.3440   -2.6150    1.0080 C   0  0
    3.0740    1.9340   -1.0640 O   0  0
    1.0000    4.6840    1.1480 C   0  0
    1.2950    4.0180    2.3480 C   0  0
    4.8360   -0.2500   -0.1700 C   0  0  2  0  0  0
    4.7580   -2.8070    0.4630 C   0  0
    5.5200   -1.4960    0.4280 C   0  0
    5.6090    1.0230    0.1950 C   0  0
    4.9020   -0.4060   -1.6930 C   0  0
    6.7740   -1.4730    0.9280 C   0  0
    6.8580    1.0210    0.6990 C   0  0
    7.5450   -0.2310    1.0060 C   0  0
    8.7110   -0.2380    1.3280 O   0  0
   -9.5020   -1.5020    0.7070 H   0  0
   -3.4360    0.1800    0.8240 H   0  0
   -3.9260   -1.1430   -0.2460 H   0  0
   -9.3610    2.3650   -2.4320 H   0  0
  -11.6290   -0.5290   -0.1540 H   0  0
  -11.5650    1.4120   -1.7270 H   0  0
   -1.5430   -1.6170    1.9140 H   0  0
   -1.7970   -2.4960    0.4410 H   0  0
    1.2050   -0.6430    1.4790 H   0  0
    1.5220    0.2810   -2.1070 H   0  0
    0.4770    1.3440   -1.2270 H   0  0
    1.1270   -2.3030   -1.8610 H   0  0
   -0.5920   -2.4320   -1.4340 H   0  0
   -0.0550   -1.2360   -2.6110 H   0  0
    0.3570   -3.3150    0.3930 H   0  0
    0.4750   -2.8090    2.0610 H   0  0
    2.6430   -1.8850   -0.8540 H   0  0
    2.0140    1.5310    0.5860 H   0  0
    0.6350    2.0020    3.0200 H   0  0
    3.4000    0.0370    1.3590 H   0  0
    3.3750   -2.3240    2.0590 H   0  0
    2.8030   -3.5630    0.9590 H   0  0
    2.4590    2.6700   -1.2090 H   0  0
    1.3590    5.6700    0.8910 H   0  0
    1.9060    4.3850    3.1600 H   0  0
    5.2770   -3.5450    1.0720 H   0  0
    4.7150   -3.2150   -0.5470 H   0  0
    5.1780    2.0000    0.0610 H   0  0
    5.9120   -0.6250   -2.0350 H   0  0
    4.5720    0.5080   -2.1890 H   0  0
    4.2540   -1.2170   -2.0250 H   0  0
    7.2310   -2.3830    1.2850 H   0  0
    7.3560    1.9610    0.8850 H   0  0
  1  2  1  0
  1  3  1  0
  2  4  1  0
  2  5  2  0
  3  6  1  0
  3  7  2  0
  4  8  1  0
  6  9  2  0
  7 10  1  0
  8 11  1  0
  9 12  1  0
 11 13  2  0
 11 14  1  0
 14 15  1  0
 14 16  1  0
 14 17  1  0
 15 18  1  0
 16 19  1  0
 16 20  1  0
 16 21  1  0
 17 22  1  0
 18 23  2  0
 18 24  1  0
 19 25  1  0
 20 26  1  0
 24 27  1  0
 24 28  2  0
 29 25  1  0
 25 30  1  0
 26 31  1  0
 27 32  1  0
 28 33  1  0
 29 34  1  0
 30 35  1  0
 34 36  1  0
 34 37  1  0
 34 38  1  0
 36 39  2  0
 37 40  2  0
 39 41  1  0
 41 42  2  0
  5  6  1  0
 10 12  2  0
 19 22  1  0
 26 29  1  0
 32 33  2  0
 35 36  1  0
 40 41  1  0
  7 43  1  0
  8 44  1  0
  8 45  1  0
  9 46  1  0
 10 47  1  0
 12 48  1  0
 17 49  1  0
 17 50  1  0
 19 51  1  0
 20 52  1  0
 20 53  1  0
 21 54  1  0
 21 55  1  0
 21 56  1  0
 22 57  1  0
 22 58  1  0
 25 59  1  0
 26 60  1  0
 28 61  1  0
 29 62  1  0
 30 63  1  0
 30 64  1  0
 31 65  1  0
 32 66  1  0
 33 67  1  0
 35 68  1  0
 35 69  1  0
 37 70  1  0
 38 71  1  0
 38 72  1  0
 38 73  1  0
 39 74  1  0
 40 75  1  0
M  END
> <Name>
CHEMBL1917414

> <IC50 nM>
0.75

> <Molecule_ChEMBL_ID>
CHEMBL1917414

> <Smiles>
C[C@]12C=CC(=O)C=C1CC[C@@H]1[C@@H]2[C@@H](O)C[C@@]2(C)[C@H]1CC[C@]2(OC(=O)c1ccco1)C(=O)CSc1nc2ccccc2s1

$$$$
CHEMBL72182
  SciTegic08162514323D

 46 49  0  0  0  0            999 V2000
    4.1480    2.0490    0.9530 S   0  0
    3.9100    2.9080   -0.1950 O   0  0
    3.8500    2.6930    2.2210 O   0  0
    3.1660    0.7680    0.8140 N   0  0
    5.8630    1.5450    0.9490 C   0  0
    1.8360    0.9410    0.7950 C   0  0
    0.9710   -0.1720    0.6740 C   0  0
    1.2850    2.2360    0.8960 C   0  0
   -0.4470   -0.0120    0.6520 C   0  0
   -0.1130    2.4200    0.8730 C   0  0
   -1.2560   -1.1060    0.5390 N   0  0
   -1.0000    1.3110    0.7500 C   0  0
   -2.7400   -1.0100    0.5640 C   0  0
   -0.7110   -2.4730    0.3870 C   0  0
   -2.4750    1.5080    0.7190 C   0  0
   -3.3130    0.3570    0.6270 C   0  0
   -0.0920   -2.6680   -0.9510 C   0  0
   -3.0840    2.7970    0.7730 C   0  0
   -4.7230    0.5040    0.5980 C   0  0
   -0.8280   -2.3890   -2.1150 C   0  0
    1.2320   -3.1330   -1.0530 C   0  0
   -4.4900    2.9300    0.7420 C   0  0
   -5.3110    1.7850    0.6540 C   0  0
   -0.2420   -2.5740   -3.3810 C   0  0
    1.8180   -3.3160   -2.3180 C   0  0
    1.0800   -3.0370   -3.4830 C   0  0
    3.5530   -0.1520    0.7440 H   0  0
    6.5020    2.4260    1.0060 H   0  0
    6.0370    0.8460    1.7680 H   0  0
    6.0900    1.0290    0.0160 H   0  0
    1.4120   -1.1560    0.6000 H   0  0
    1.9240    3.1020    0.9920 H   0  0
   -0.4630    3.4380    0.9570 H   0  0
   -3.1250   -1.5100   -0.3260 H   0  0
   -3.1000   -1.5780    1.4240 H   0  0
   -1.5140   -3.1970    0.5230 H   0  0
    0.0350   -2.6500    1.1600 H   0  0
   -2.5120    3.7090    0.8420 H   0  0
   -5.3580   -0.3690    0.5290 H   0  0
   -1.8460   -2.0330   -2.0450 H   0  0
    1.8050   -3.3500   -0.1620 H   0  0
   -4.9420    3.9100    0.7850 H   0  0
   -6.3850    1.8890    0.6290 H   0  0
   -0.8110   -2.3590   -4.2750 H   0  0
    2.8340   -3.6740   -2.3970 H   0  0
    1.5290   -3.1800   -4.4530 H   0  0
  1  2  2  0
  1  3  2  0
  1  4  1  0
  1  5  1  0
  4  6  1  0
  6  7  2  0
  6  8  1  0
  7  9  1  0
  8 10  2  0
  9 11  1  0
  9 12  2  0
 11 13  1  0
 11 14  1  0
 12 15  1  0
 13 16  1  0
 14 17  1  0
 15 18  2  0
 16 19  2  0
 17 20  2  0
 17 21  1  0
 18 22  1  0
 19 23  1  0
 20 24  1  0
 21 25  2  0
 24 26  2  0
 10 12  1  0
 15 16  1  0
 22 23  2  0
 25 26  1  0
  4 27  1  0
  5 28  1  0
  5 29  1  0
  5 30  1  0
  7 31  1  0
  8 32  1  0
 10 33  1  0
 13 34  1  0
 13 35  1  0
 14 36  1  0
 14 37  1  0
 18 38  1  0
 19 39  1  0
 20 40  1  0
 21 41  1  0
 22 42  1  0
 23 43  1  0
 24 44  1  0
 25 45  1  0
 26 46  1  0
M  END
> <Name>
CHEMBL72182

> <IC50 nM>
20

> <Molecule_ChEMBL_ID>
CHEMBL72182

> <Smiles>
CS(=O)(=O)Nc1ccc2c(c1)N(Cc1ccccc1)Cc1ccccc1-2

$$$$
CHEMBL1911547
  SciTegic08162514323D

 53 55  0  0  1  0            999 V2000
   -6.7050   -0.1840   -0.2850 F   0  0
   -5.6230    0.5800   -0.1460 C   0  0
   -4.4080    0.0100    0.2710 C   0  0
   -5.6950    1.9550   -0.4180 C   0  0
   -3.2660    0.8160    0.4180 C   0  0
   -4.5530    2.7620   -0.2710 C   0  0
   -3.3360    2.1970    0.1460 C   0  0
   -1.9840    0.2030    0.8610 C   0  0
   -2.2710    2.9630    0.2790 O   0  0
   -1.3790    0.1820   -0.5410 C   0  0
   -2.1990   -1.1990    1.4340 C   0  0
   -1.2230    1.1190    1.8200 C   0  0
   -2.3980    4.3420   -0.0310 C   0  0
   -0.0980   -0.6500   -0.6170 C   0  0  1  0  0  0
   -0.4510   -2.0140   -0.5610 O   0  0
    0.5220   -0.3730   -1.9880 C   0  0
    0.8650   -0.3570    0.5330 C   0  0
    1.0700    0.8830   -1.9980 F   0  0
   -0.4510   -0.4530   -2.9530 F   0  0
    1.4960   -1.3010   -2.2460 F   0  0
    2.2210   -0.9840    0.2870 C   0  0
    3.3540   -0.2420   -0.1350 N   0  0
    2.5980   -2.3320    0.4200 C   0  0
    4.4040   -1.1410   -0.2500 C   0  0
    3.9060   -2.3750    0.0880 C   0  0
    5.7700   -0.9860   -0.6270 C   0  0
    4.7290   -3.5330    0.0680 C   0  0
    6.3030    0.3070   -0.9730 C   0  0
    6.6190   -2.1290   -0.6640 C   0  0
    6.0940   -3.4020   -0.3140 C   0  0
    6.7310    1.3500   -1.2500 N   0  0
   -4.3540   -1.0490    0.4800 H   0  0
   -6.6270    2.3980   -0.7400 H   0  0
   -4.6130    3.8200   -0.4820 H   0  0
   -1.2010    1.1950   -0.9000 H   0  0
   -2.1070   -0.1680   -1.2720 H   0  0
   -2.9730   -1.2090    2.2030 H   0  0
   -1.2810   -1.5780    1.8790 H   0  0
   -2.5020   -1.8930    0.6480 H   0  0
   -1.8960    1.7210    2.4300 H   0  0
   -0.5760    1.8030    1.2680 H   0  0
   -0.5940    0.5370    2.4920 H   0  0
   -1.4510    4.8320    0.1950 H   0  0
   -2.7520    4.4280   -1.0590 H   0  0
   -3.1600    4.7700    0.6210 H   0  0
   -0.0940   -2.3670    0.2700 H   0  0
    0.4610   -0.7230    1.4770 H   0  0
    0.9830    0.7190    0.6740 H   0  0
    3.3930    0.7280   -0.3130 H   0  0
    1.9750   -3.1540    0.7230 H   0  0
    4.3340   -4.5020    0.3380 H   0  0
    7.6620   -2.0410   -0.9510 H   0  0
    6.7330   -4.2770   -0.3380 H   0  0
  1  2  1  0
  2  3  2  0
  2  4  1  0
  3  5  1  0
  4  6  2  0
  5  7  2  0
  5  8  1  0
  7  9  1  0
  8 10  1  0
  8 11  1  0
  8 12  1  0
  9 13  1  0
 10 14  1  0
 14 15  1  0
 14 16  1  0
 14 17  1  0
 16 18  1  0
 16 19  1  0
 16 20  1  0
 17 21  1  0
 21 22  1  0
 21 23  2  0
 22 24  1  0
 23 25  1  0
 24 26  1  0
 25 27  1  0
 26 28  1  0
 26 29  2  0
 27 30  2  0
 28 31  3  0
  6  7  1  0
 24 25  2  0
 29 30  1  0
  3 32  1  0
  4 33  1  0
  6 34  1  0
 10 35  1  0
 10 36  1  0
 11 37  1  0
 11 38  1  0
 11 39  1  0
 12 40  1  0
 12 41  1  0
 12 42  1  0
 13 43  1  0
 13 44  1  0
 13 45  1  0
 15 46  1  0
 17 47  1  0
 17 48  1  0
 22 49  1  0
 23 50  1  0
 27 51  1  0
 29 52  1  0
 30 53  1  0
M  END
> <Name>
CHEMBL1911547

> <IC50 nM>
27

> <Molecule_ChEMBL_ID>
CHEMBL1911547

> <Smiles>
COc1ccc(F)cc1C(C)(C)CC(O)(Cc1cc2cccc(C#N)c2[nH]1)C(F)(F)F

$$$$
CHEMBL3093453
  SciTegic08162514323D

 53 55  0  0  1  0            999 V2000
   -2.0980    1.0900    0.3380 S   0  0
   -2.4880    2.4380    0.7150 O   0  0
   -2.2970    0.8110   -1.0720 O   0  0
   -0.3810    0.9960    0.6080 N   0  0
   -3.0450   -0.0290    1.2540 C   0  0
    0.2970   -0.2440    0.2680 C   0  0  2  0  0  0
   -3.4550   -1.2440    0.6740 C   0  0
   -3.4060    0.2770    2.5800 C   0  0
    1.5570   -0.4160    1.1150 C   0  0
    0.5820   -0.3050   -1.2320 C   0  0
   -4.2250   -2.1520    1.4200 C   0  0
   -3.0760   -1.5720   -0.7260 C   0  0
   -4.1780   -0.6330    3.3220 C   0  0
   -2.9790    1.5590    3.1990 C   0  0
    2.2420   -1.5270    0.6970 F   0  0
    1.2050   -0.5640    2.4320 F   0  0
    2.3540    0.6910    0.9790 F   0  0
    1.4820    0.8360   -1.6660 C   0  0
   -4.5880   -1.8480    2.7440 C   0  0
    2.7950    0.7790   -2.0000 C   0  0
    1.1150    2.1860   -1.8050 C   0  0
   -5.4020   -2.8110    3.5310 C   0  0
    3.3010    2.0080   -2.3440 C   0  0
    3.6070   -0.3830   -2.0180 C   0  0
    2.2540    2.9140   -2.2280 N   0  0
    4.6580    2.1600   -2.7190 C   0  0
    4.9690   -0.2560   -2.4000 C   0  0
    5.1890    3.4510   -3.0660 C   0  0
    5.5000    1.0160   -2.7500 C   0  0
    5.8340   -1.4450   -2.4340 C   0  0
    5.6210    4.4940   -3.3380 N   0  0
   -0.1760    1.2170    1.5920 H   0  0
   -0.4590   -0.9800    0.5470 H   0  0
   -0.3460   -0.2710   -1.8030 H   0  0
    1.0450   -1.2560   -1.5000 H   0  0
   -4.5390   -3.0860    0.9750 H   0  0
   -2.0200   -1.4300   -0.9510 H   0  0
   -3.6500   -0.9530   -1.4140 H   0  0
   -3.3200   -2.6150   -0.9340 H   0  0
   -4.4570   -0.4000    4.3420 H   0  0
   -3.0760    1.5880    4.2830 H   0  0
   -3.5700    2.3770    2.7890 H   0  0
   -1.9340    1.7500    2.9530 H   0  0
    0.1460    2.6350   -1.6290 H   0  0
   -5.5610   -2.4140    4.5350 H   0  0
   -6.3360   -3.0120    3.0060 H   0  0
   -4.8630   -3.7520    3.6270 H   0  0
    3.2050   -1.3480   -1.7440 H   0  0
    2.2890    3.8910   -2.4100 H   0  0
    6.5390    1.1040   -3.0350 H   0  0
    6.8610   -1.2440   -2.7320 H   0  0
    5.4200   -2.1740   -3.1310 H   0  0
    5.8570   -1.9040   -1.4450 H   0  0
  1  2  2  0
  1  3  2  0
  1  4  1  0
  1  5  1  0
  6  4  1  0
  5  7  2  0
  5  8  1  0
  6  9  1  0
  6 10  1  0
  7 11  1  0
  7 12  1  0
  8 13  2  0
  8 14  1  0
  9 15  1  0
  9 16  1  0
  9 17  1  0
 10 18  1  0
 11 19  2  0
 18 20  1  0
 18 21  2  0
 19 22  1  0
 20 23  1  0
 20 24  2  0
 21 25  1  0
 23 26  2  0
 24 27  1  0
 26 28  1  0
 26 29  1  0
 27 30  1  0
 28 31  3  0
 13 19  1  0
 23 25  1  0
 27 29  2  0
  4 32  1  0
  6 33  1  0
 10 34  1  0
 10 35  1  0
 11 36  1  0
 12 37  1  0
 12 38  1  0
 12 39  1  0
 13 40  1  0
 14 41  1  0
 14 42  1  0
 14 43  1  0
 21 44  1  0
 22 45  1  0
 22 46  1  0
 22 47  1  0
 24 48  1  0
 25 49  1  0
 29 50  1  0
 30 51  1  0
 30 52  1  0
 30 53  1  0
M  END
> <Name>
CHEMBL3093453

> <IC50 nM>
15

> <Molecule_ChEMBL_ID>
CHEMBL3093453

> <Smiles>
Cc1cc(C)c(S(=O)(=O)NC(Cc2c[nH]c3c(C#N)cc(C)cc23)C(F)(F)F)c(C)c1

$$$$
CHEMBL3421892
  SciTegic08162514323D

 53 56  0  0  1  0            999 V2000
   -2.5270    2.0510    0.3570 Cl  0  0
   -1.1800    1.2620    1.0780 C   0  0
   -1.2300   -0.1060    1.4280 C   0  0
   -0.0060    2.0020    1.3240 C   0  0
   -0.1090   -0.7210    2.0140 C   0  0
   -2.4650   -0.9300    1.1840 C   0  0
    1.1100    1.3810    1.9100 C   0  0
    1.0590    0.0210    2.2540 C   0  0
   -2.8730   -1.8260    2.3790 C   0  0
   -3.7910   -0.1470    1.3400 C   0  0
   -2.3380   -1.6780   -0.1390 C   0  0
    2.1190   -0.5650    2.8090 F   0  0
   -4.1930   -1.0430    2.5270 C   0  0
   -2.4160   -0.6840   -1.2970 C   0  0  1  0  0  0
   -3.5390    0.1420   -1.0960 O   0  0
   -1.1800    0.1700   -1.4040 C   0  0
   -2.5620   -1.3690   -2.6540 C   0  0
   -1.2050    1.2300   -1.9810 O   0  0
   -0.0210   -0.2790   -0.8340 N   0  0
   -2.4570   -0.4360   -3.6520 F   0  0
   -3.7890   -1.9790   -2.7290 F   0  0
   -1.5740   -2.3090   -2.8030 F   0  0
    1.0940    0.4590   -0.9140 C   0  0
    2.3670   -0.1700   -0.9510 C   0  0
    1.0140    1.8770   -0.9610 C   0  0
    3.5450    0.6170   -1.0350 C   0  0
    2.1880    2.6620   -1.0470 C   0  0
    3.4510    2.0230   -1.0820 C   0  0
    4.9010   -0.0040   -1.0740 C   0  0
    4.7230    2.7930   -1.1700 C   0  0
    5.9530    0.7380   -1.1500 N   0  0
    5.0760   -1.5020   -1.0290 C   0  0
    4.7390    4.0020   -1.2170 O   0  0
    5.9380    2.1990   -1.2030 O   0  0
    0.0490    3.0490    1.0660 H   0  0
   -0.1460   -1.7680    2.2810 H   0  0
    2.0060    1.9550    2.0960 H   0  0
   -2.9980   -2.8850    2.1500 H   0  0
   -2.2260   -1.7970    3.2580 H   0  0
   -3.7070    0.9160    1.5800 H   0  0
   -4.4670   -0.1930    0.4860 H   0  0
   -3.1170   -2.4360   -0.2290 H   0  0
   -1.4060   -2.2400   -0.1760 H   0  0
   -4.3220   -0.5260    3.4790 H   0  0
   -5.1010   -1.6310    2.3810 H   0  0
   -4.3260   -0.4220   -1.1700 H   0  0
   -0.0040   -1.1580   -0.3570 H   0  0
    2.4420   -1.2480   -0.9180 H   0  0
    0.0550    2.3750   -0.9340 H   0  0
    2.1120    3.7380   -1.0820 H   0  0
    6.1370   -1.7520   -1.0780 H   0  0
    4.6130   -1.9010   -0.1270 H   0  0
    4.5860   -1.9590   -1.8870 H   0  0
  1  2  1  0
  2  3  2  0
  2  4  1  0
  3  5  1  0
  3  6  1  0
  4  7  2  0
  5  8  2  0
  6  9  1  0
  6 10  1  0
  6 11  1  0
  8 12  1  0
  9 13  1  0
 11 14  1  0
 14 15  1  0
 14 16  1  0
 14 17  1  0
 16 18  2  0
 16 19  1  0
 17 20  1  0
 17 21  1  0
 17 22  1  0
 19 23  1  0
 23 24  2  0
 23 25  1  0
 24 26  1  0
 25 27  2  0
 26 28  2  0
 26 29  1  0
 28 30  1  0
 29 31  2  0
 29 32  1  0
 30 33  2  0
 30 34  1  0
  7  8  1  0
 10 13  1  0
 27 28  1  0
 31 34  1  0
  4 35  1  0
  5 36  1  0
  7 37  1  0
  9 38  1  0
  9 39  1  0
 10 40  1  0
 10 41  1  0
 11 42  1  0
 11 43  1  0
 13 44  1  0
 13 45  1  0
 15 46  1  0
 19 47  1  0
 24 48  1  0
 25 49  1  0
 27 50  1  0
 32 51  1  0
 32 52  1  0
 32 53  1  0
M  END
> <Name>
CHEMBL3421892

> <IC50 nM>
0.4

> <Molecule_ChEMBL_ID>
CHEMBL3421892

> <Smiles>
Cc1noc(=O)c2ccc(NC(=O)C(O)(CC3(c4cc(F)ccc4Cl)CCC3)C(F)(F)F)cc12

$$$$
CHEMBL3421875
  SciTegic08162514323D

 57 60  0  0  1  0            999 V2000
   -4.3420   -4.2870    0.9510 O   0  0
   -3.4780   -3.4350    0.3790 C   0  0
   -3.8690   -2.1070    0.1090 C   0  0
   -2.1760   -3.8670    0.0490 C   0  0
   -2.9610   -1.1990   -0.4900 C   0  0
   -1.2640   -2.9730   -0.5550 C   0  0
   -1.6410   -1.6290   -0.8340 C   0  0
   -3.4020    0.2010   -0.7620 C   0  0
   -0.7210   -0.6230   -1.4670 C   0  0  1  0  0  0
   -2.2790    1.2700   -0.7660 C   0  0
   -0.8650    0.6800   -0.6250 C   0  0  2  0  0  0
    0.7910   -1.0140   -1.5860 C   0  0
   -1.2250   -0.3910   -2.9040 C   0  0
    0.2680    1.6760   -0.9040 C   0  0
    1.6700   -0.4670   -0.4400 C   0  0  2  0  0  0
   -1.1420   -1.6480   -3.7700 C   0  0
    1.6600    1.1150   -0.4690 C   0  0  1  0  0  0
    2.9830   -0.9800   -0.6100 O   0  0
    1.2110   -1.0680    0.9000 C   0  0
    2.5820    1.6020   -1.4340 O   0  0
    2.0840    1.6920    0.8420 C   0  0
    1.1190    2.0680    1.7930 C   0  0
    3.4510    1.8600    1.1290 C   0  0
    1.5180    2.6130    3.0250 C   0  0
    3.8520    2.4040    2.3630 C   0  0
    2.8850    2.7810    3.3120 C   0  0
    3.3070    3.3560    4.6170 C   0  0
   -5.2300   -3.9800    1.1720 H   0  0
   -4.8690   -1.7850    0.3630 H   0  0
   -1.8750   -4.8830    0.2560 H   0  0
   -0.2830   -3.3570   -0.7850 H   0  0
   -4.1660    0.5000   -0.0410 H   0  0
   -3.8980    0.2050   -1.7350 H   0  0
   -2.3440    1.8480   -1.6900 H   0  0
   -2.4470    1.9860    0.0370 H   0  0
   -0.7710    0.4340    0.4350 H   0  0
    1.1880   -0.5680   -2.5020 H   0  0
    0.9510   -2.0760   -1.7520 H   0  0
   -2.2400    0.0080   -2.8990 H   0  0
   -0.6850    0.4360   -3.3730 H   0  0
    0.0550    2.6330   -0.4240 H   0  0
    0.2380    1.8890   -1.9770 H   0  0
   -1.5160   -1.4490   -4.7760 H   0  0
   -0.1130   -2.0040   -3.8360 H   0  0
   -1.7460   -2.4490   -3.3440 H   0  0
    2.9140   -1.9470   -0.6060 H   0  0
    1.4770   -2.1210    0.9840 H   0  0
    0.1290   -0.9880    1.0080 H   0  0
    1.6700   -0.5410    1.7360 H   0  0
    3.4100    1.1090   -1.3130 H   0  0
    0.0680    1.9430    1.5780 H   0  0
    4.1990    1.5720    0.4040 H   0  0
    0.7720    2.9010    3.7500 H   0  0
    4.9030    2.5290    2.5760 H   0  0
    4.3870    3.4440    4.7380 H   0  0
    2.9300    2.7330    5.4280 H   0  0
    2.8770    4.3500    4.7320 H   0  0
  1  2  1  0
  2  3  2  0
  2  4  1  0
  3  5  1  0
  4  6  2  0
  5  7  2  0
  5  8  1  0
  7  9  1  0
  8 10  1  0
  9 11  1  0
  9 12  1  0
  9 13  1  0
 11 14  1  0
 12 15  1  0
 13 16  1  0
 14 17  1  0
 15 18  1  0
 15 19  1  0
 17 20  1  0
 17 21  1  0
 21 22  2  0
 21 23  1  0
 22 24  1  0
 23 25  2  0
 24 26  2  0
 26 27  1  0
  6  7  1  0
 10 11  1  0
 15 17  1  0
 25 26  1  0
  1 28  1  0
  3 29  1  0
  4 30  1  0
  6 31  1  0
  8 32  1  0
  8 33  1  0
 10 34  1  0
 10 35  1  0
 11 36  1  0
 12 37  1  0
 12 38  1  0
 13 39  1  0
 13 40  1  0
 14 41  1  0
 14 42  1  0
 16 43  1  0
 16 44  1  0
 16 45  1  0
 18 46  1  0
 19 47  1  0
 19 48  1  0
 19 49  1  0
 20 50  1  0
 22 51  1  0
 23 52  1  0
 24 53  1  0
 25 54  1  0
 27 55  1  0
 27 56  1  0
 27 57  1  0
M  END
> <Name>
CHEMBL3421875

> <IC50 nM>
1.3

> <Molecule_ChEMBL_ID>
CHEMBL3421875

> <Smiles>
CC[C@@]12C[C@@](C)(O)[C@](O)(c3ccc(C)cc3)C[C@H]1CCc1cc(O)ccc12

$$$$
CHEMBL2023233
  SciTegic08162514323D

 84 91  0  0  1  0            999 V2000
    6.8580   -2.3850   -1.2340 S   0  0
    7.3480   -2.6740    0.4140 C   0  0
    7.6780   -3.7750   -1.5860 C   0  0
    7.1580   -1.9390    1.9220 S   0  0
    8.1250   -3.8380    0.5960 N   0  0
    8.3150   -4.4820   -0.5940 C   0  0
    7.7420   -4.2660   -2.9180 C   0  0
    6.1900   -0.5330    1.5450 C   0  0
    9.0290   -5.6780   -0.8440 C   0  0
    8.4470   -5.4590   -3.2110 C   0  0
    4.7380   -0.9260    1.4790 C   0  0
    9.0940   -6.1680   -2.1700 C   0  0
    4.4120   -2.0780    1.3110 O   0  0
    3.6990    0.1600    1.6290 C   0  0  2  0  0  0
    3.5020    0.3440    3.0220 O   0  0
    2.3500   -0.1330    0.9340 C   0  0  2  0  0  0
    4.1170    1.5080    0.9900 C   0  0
    1.7460    1.2890    0.9370 C   0  0  1  0  0  0
    1.3730   -1.1520    1.5660 C   0  0
    2.6780   -0.5840   -0.5020 C   0  0
    2.8690    2.1230    0.3340 C   0  0
    0.3540    1.1990    0.3070 C   0  0  1  0  0  0
    0.1540   -0.4820    2.2380 C   0  0  1  0  0  0
   -0.6150    0.5530    1.3360 C   0  0  2  0  0  0
   -0.2070    2.5350   -0.1620 C   0  0
   -0.6560   -1.4920    2.7970 O   0  0
   -1.9730    0.1680    0.6430 C   0  0  2  0  0  0
   -1.5140    2.2890   -0.9160 C   0  0
   -2.4880    1.3650   -0.2030 C   0  0
   -3.0270   -0.3380    1.6990 C   0  0
   -1.7210   -0.9690   -0.3570 C   0  0
   -3.8090    1.6230   -0.3570 C   0  0
   -4.4840   -0.1480    1.3070 C   0  0
   -4.7930    0.7990    0.3520 C   0  0
   -5.5680   -0.8400    1.8420 C   0  0
   -6.1490    0.7190    0.2990 N   0  0
   -6.5820   -0.2380    1.1620 N   0  0
   -6.9570    1.4710   -0.4900 C   0  0
   -6.6370    1.6660   -1.8480 C   0  0
   -8.1190    2.0610    0.0470 C   0  0
   -7.4750    2.4450   -2.6620 C   0  0
   -8.9530    2.8380   -0.7730 C   0  0
   -8.6350    3.0330   -2.1290 C   0  0
   -9.4200    3.7640   -2.8950 O   0  0
  -10.5820    4.3320   -2.3090 C   0  0
    7.2500   -3.7270   -3.7130 H   0  0
    6.3320    0.2250    2.3140 H   0  0
    6.5060   -0.1210    0.5860 H   0  0
    9.5220   -6.2110   -0.0410 H   0  0
    8.4920   -5.8260   -4.2250 H   0  0
    9.6330   -7.0780   -2.3890 H   0  0
    4.3280    0.6990    3.3830 H   0  0
    4.5470    2.1880    1.7130 H   0  0
    4.8730    1.3630    0.2300 H   0  0
    1.6110    1.6640    1.9450 H   0  0
    1.9060   -1.7850    2.2770 H   0  0
    0.9980   -1.8320    0.7990 H   0  0
    3.3910    0.0840   -0.9840 H   0  0
    1.7750   -0.6070   -1.1130 H   0  0
    3.1070   -1.5860   -0.5020 H   0  0
    2.7620    3.1740    0.5590 H   0  0
    2.9000    2.0180   -0.7400 H   0  0
    0.4220    0.5630   -0.5760 H   0  0
    0.5390    0.0590    3.1040 H   0  0
   -0.8890    1.3460    2.0370 H   0  0
   -0.3750    3.1950    0.6910 H   0  0
    0.5020    3.0430   -0.8160 H   0  0
   -0.1290   -1.9370    3.4800 H   0  0
   -1.2830    1.8500   -1.8870 H   0  0
   -1.9800    3.2520   -1.1230 H   0  0
   -2.9000   -1.4000    1.9020 H   0  0
   -2.8850    0.1860    2.6470 H   0  0
   -1.1210   -0.6390   -1.2050 H   0  0
   -2.6620   -1.3550   -0.7460 H   0  0
   -1.1930   -1.7930    0.1210 H   0  0
   -4.1430    2.4260   -1.0000 H   0  0
   -5.6370   -1.6250    2.5820 H   0  0
   -5.7500    1.2230   -2.2790 H   0  0
   -8.3830    1.9220    1.0860 H   0  0
   -7.2270    2.5920   -3.7030 H   0  0
   -9.8440    3.2870   -0.3570 H   0  0
  -11.2330    3.5220   -1.9820 H   0  0
  -10.2660    5.0370   -1.5390 H   0  0
  -11.1110    4.8950   -3.0780 H   0  0
  1  2  1  0
  1  3  1  0
  2  4  1  0
  2  5  2  0
  3  6  1  0
  3  7  2  0
  4  8  1  0
  6  9  2  0
  7 10  1  0
  8 11  1  0
  9 12  1  0
 11 13  2  0
 11 14  1  0
 14 15  1  0
 14 16  1  0
 14 17  1  0
 16 18  1  0
 16 19  1  0
 16 20  1  0
 17 21  1  0
 18 22  1  0
 19 23  1  0
 24 22  1  0
 22 25  1  0
 23 26  1  0
 24 27  1  0
 25 28  1  0
 27 29  1  0
 27 30  1  0
 27 31  1  0
 29 32  2  0
 30 33  1  0
 32 34  1  0
 33 35  1  0
 34 36  1  0
 35 37  2  0
 36 38  1  0
 38 39  2  0
 38 40  1  0
 39 41  1  0
 40 42  2  0
 41 43  2  0
 43 44  1  0
 44 45  1  0
  5  6  1  0
 10 12  2  0
 18 21  1  0
 23 24  1  0
 28 29  1  0
 33 34  2  0
 36 37  1  0
 42 43  1  0
  7 46  1  0
  8 47  1  0
  8 48  1  0
  9 49  1  0
 10 50  1  0
 12 51  1  0
 15 52  1  0
 17 53  1  0
 17 54  1  0
 18 55  1  0
 19 56  1  0
 19 57  1  0
 20 58  1  0
 20 59  1  0
 20 60  1  0
 21 61  1  0
 21 62  1  0
 22 63  1  0
 23 64  1  0
 24 65  1  0
 25 66  1  0
 25 67  1  0
 26 68  1  0
 28 69  1  0
 28 70  1  0
 30 71  1  0
 30 72  1  0
 31 73  1  0
 31 74  1  0
 31 75  1  0
 32 76  1  0
 35 77  1  0
 39 78  1  0
 40 79  1  0
 41 80  1  0
 42 81  1  0
 45 82  1  0
 45 83  1  0
 45 84  1  0
M  END
> <Name>
CHEMBL2023233

> <IC50 nM>
107

> <Molecule_ChEMBL_ID>
CHEMBL2023233

> <Smiles>
COc1ccc(-n2ncc3c2C=C2CC[C@@H]4[C@H]([C@@H](O)C[C@@]5(C)[C@H]4CC[C@]5(O)C(=O)CSc4nc5ccccc5s4)[C@@]2(C)C3)cc1

$$$$
CHEMBL2023236
  SciTegic08162514323D

 86 93  0  0  1  0            999 V2000
    9.8220   -0.5120    1.0800 S   0  0
    8.1250   -0.3930    0.6950 C   0  0
    9.8260    1.1390    0.9940 C   0  0
    6.8160   -1.4340    0.4610 S   0  0
    7.6580    0.9280    0.5220 N   0  0
    8.6740    1.8260    0.7010 C   0  0
   11.0200    1.8730    1.2230 C   0  0
    6.2540   -0.9860   -1.1350 C   0  0
    8.6270    3.2380    0.6170 C   0  0
   11.0160    3.2890    1.1490 C   0  0
    4.9340   -0.2710   -1.0170 C   0  0
    9.8150    3.9750    0.8440 C   0  0
    4.8870    0.9060   -0.7500 O   0  0
    3.6720   -1.0680   -1.2460 C   0  0  2  0  0  0
    3.4820   -1.1370   -2.6500 O   0  0
    2.4080   -0.4920   -0.5680 C   0  0  2  0  0  0
    3.7340   -2.5060   -0.6700 C   0  0
    1.4840   -1.7270   -0.6600 C   0  0  1  0  0  0
    1.7250    0.7600   -1.1660 C   0  0
    2.7870   -0.1970    0.8970 C   0  0
    2.3550   -2.8300   -0.0720 C   0  0
    0.1330   -1.3320   -0.0550 C   0  0  1  0  0  0
    0.4080    0.4360   -1.9020 C   0  0  1  0  0  0
   -0.6190   -0.4340   -1.0800 C   0  0  2  0  0  0
   -0.7420   -2.5140    0.3380 C   0  0
   -0.1190    1.6370   -2.4160 O   0  0
   -1.8770    0.2270   -0.4100 C   0  0  2  0  0  0
   -1.9810   -1.9940    1.0670 C   0  0
   -2.6900   -0.8500    0.3610 C   0  0
   -2.7400    1.0060   -1.4750 C   0  0
   -1.4100    1.2340    0.6510 C   0  0
   -4.0370   -0.8030    0.4590 C   0  0
   -4.2170    1.1390   -1.1440 C   0  0
   -4.7720    0.2500   -0.2460 C   0  0
   -5.0960    2.0740   -1.6850 C   0  0
   -6.0740    0.6310   -0.2380 N   0  0
   -6.2480    1.6930   -1.0700 N   0  0
   -7.1410   -0.0020    0.5510 C   0  0
   -8.2520   -0.5450   -0.3690 C   0  0
   -7.7070    0.9810    1.5940 C   0  0
   -9.4010   -1.1660    0.4400 C   0  0
   -8.8600    0.3570    2.3950 C   0  0
   -9.9630   -0.1800    1.4710 C   0  0
   11.9380    1.3540    1.4550 H   0  0
    6.9880   -0.3340   -1.6090 H   0  0
    6.1370   -1.8830   -1.7440 H   0  0
    7.7030    3.7520    0.3830 H   0  0
   11.9240    3.8440    1.3220 H   0  0
    9.8050    5.0530    0.7850 H   0  0
    2.9550   -1.9320   -2.8300 H   0  0
    4.4790   -2.5820    0.1090 H   0  0
    4.0120   -3.2360   -1.4200 H   0  0
    1.2990   -2.0120   -1.6870 H   0  0
    2.4180    1.2790   -1.8280 H   0  0
    1.4960    1.4730   -0.3710 H   0  0
    3.3240   -1.0290    1.3520 H   0  0
    1.8960   -0.0100    1.4940 H   0  0
    3.4240    0.6860    0.9610 H   0  0
    2.3750   -2.7790    1.0060 H   0  0
    2.0080   -3.8140   -0.3510 H   0  0
    0.3180   -0.7620    0.8580 H   0  0
    0.6840   -0.1390   -2.7890 H   0  0
   -1.0370   -1.1110   -1.8280 H   0  0
   -1.0270   -3.0840   -0.5470 H   0  0
   -0.1950   -3.1970    0.9900 H   0  0
    0.5180    1.9770   -3.0640 H   0  0
   -1.6900   -1.6500    2.0610 H   0  0
   -2.6660   -2.8280    1.2250 H   0  0
   -2.6780    0.5080   -2.4430 H   0  0
   -2.3670    2.0220   -1.6170 H   0  0
   -2.2540    1.8010    1.0450 H   0  0
   -0.9100    0.7250    1.4730 H   0  0
   -0.7030    1.9450    0.2210 H   0  0
   -4.5760   -1.5270    1.0510 H   0  0
   -4.9550    2.8830   -2.3910 H   0  0
   -6.6970   -0.8460    1.0840 H   0  0
   -8.6530    0.2600   -0.9880 H   0  0
   -7.8480   -1.2910   -1.0550 H   0  0
   -6.9220    1.3010    2.2810 H   0  0
   -8.0710    1.8850    1.1000 H   0  0
   -9.0410   -2.0590    0.9510 H   0  0
  -10.1960   -1.4920   -0.2340 H   0  0
   -8.4730   -0.4590    3.0080 H   0  0
   -9.2780    1.0920    3.0820 H   0  0
  -10.7400   -0.6620    2.0630 H   0  0
  -10.4380    0.6540    0.9530 H   0  0
  1  2  1  0
  1  3  1  0
  2  4  1  0
  2  5  2  0
  3  6  1  0
  3  7  2  0
  4  8  1  0
  6  9  2  0
  7 10  1  0
  8 11  1  0
  9 12  1  0
 11 13  2  0
 11 14  1  0
 14 15  1  0
 14 16  1  0
 14 17  1  0
 16 18  1  0
 16 19  1  0
 16 20  1  0
 17 21  1  0
 18 22  1  0
 19 23  1  0
 24 22  1  0
 22 25  1  0
 23 26  1  0
 24 27  1  0
 25 28  1  0
 27 29  1  0
 27 30  1  0
 27 31  1  0
 29 32  2  0
 30 33  1  0
 32 34  1  0
 33 35  1  0
 34 36  1  0
 35 37  2  0
 36 38  1  0
 38 39  1  0
 38 40  1  0
 39 41  1  0
 40 42  1  0
 41 43  1  0
  5  6  1  0
 10 12  2  0
 18 21  1  0
 23 24  1  0
 28 29  1  0
 33 34  2  0
 36 37  1  0
 42 43  1  0
  7 44  1  0
  8 45  1  0
  8 46  1  0
  9 47  1  0
 10 48  1  0
 12 49  1  0
 15 50  1  0
 17 51  1  0
 17 52  1  0
 18 53  1  0
 19 54  1  0
 19 55  1  0
 20 56  1  0
 20 57  1  0
 20 58  1  0
 21 59  1  0
 21 60  1  0
 22 61  1  0
 23 62  1  0
 24 63  1  0
 25 64  1  0
 25 65  1  0
 26 66  1  0
 28 67  1  0
 28 68  1  0
 30 69  1  0
 30 70  1  0
 31 71  1  0
 31 72  1  0
 31 73  1  0
 32 74  1  0
 35 75  1  0
 38 76  1  0
 39 77  1  0
 39 78  1  0
 40 79  1  0
 40 80  1  0
 41 81  1  0
 41 82  1  0
 42 83  1  0
 42 84  1  0
 43 85  1  0
 43 86  1  0
M  END
> <Name>
CHEMBL2023236

> <IC50 nM>
7.1

> <Molecule_ChEMBL_ID>
CHEMBL2023236

> <Smiles>
C[C@]12Cc3cnn(C4CCCCC4)c3C=C1CC[C@@H]1[C@@H]2[C@@H](O)C[C@@]2(C)[C@H]1CC[C@]2(O)C(=O)CSc1nc2ccccc2s1

$$$$
CHEMBL2024024
  SciTegic08162514323D

 70 75  0  0  1  0            999 V2000
   -4.2740   -2.1040   -1.1370 S   0  0
   -5.8650   -1.5940   -0.8940 C   0  0
   -3.3460   -0.7050   -0.6410 C   0  0
   -6.4960   -0.4410   -0.4430 N   0  0
   -6.6920   -2.6900   -1.2810 C   0  0
   -1.8770   -0.9960   -0.7950 C   0  0
   -7.8750   -0.3520   -0.3670 C   0  0
   -8.0700   -2.6250   -1.2150 N   0  0
   -1.4880   -2.1080   -1.0640 O   0  0
   -0.9020    0.1420   -0.6010 C   0  0  2  0  0  0
   -8.6820   -1.4690   -0.7620 C   0  0
   -8.5000    0.8340    0.0980 C   0  0
   -0.9180    0.9060   -1.7990 O   0  0
    0.5390   -0.2930   -0.2420 C   0  0  2  0  0  0
   -1.2620    1.0680    0.5760 C   0  0
  -10.0920   -1.3770   -0.6820 C   0  0
   -9.9080    0.9120    0.1720 C   0  0
    1.1470    1.0310    0.2360 C   0  0  1  0  0  0
    1.4360   -0.8220   -1.3790 C   0  0
    0.4430   -1.2970    0.9180 C   0  0
    0.0610    1.5820    1.1600 C   0  0
  -10.7030   -0.1900   -0.2170 C   0  0
    2.5510    0.8590    0.8400 C   0  0  1  0  0  0
    2.9100   -0.9940   -0.9370 C   0  0  1  0  0  0
    3.4940    0.2710   -0.2400 C   0  0  2  0  0  0
    3.0530    2.2400    1.2890 C   0  0
    3.0120   -2.1370   -0.1070 O   0  0
    4.9730    0.1420    0.2620 C   0  0  2  0  0  0
    4.4860    2.1840    1.8200 C   0  0
    5.4410    1.4510    0.8990 C   0  0
    5.8770   -0.2540   -0.9350 C   0  0
    5.1060   -0.9060    1.3750 C   0  0
    6.6780    1.9530    0.6820 C   0  0
    7.3770   -0.1150   -0.6440 C   0  0
    7.6950    1.2640   -0.1270 C   0  0
    8.7540    1.7950   -0.3670 O   0  0
   -3.6190    0.1500   -1.2560 H   0  0
   -3.5680   -0.4710    0.4000 H   0  0
   -6.2480   -3.6080   -1.6410 H   0  0
   -7.9080    1.6870    0.3990 H   0  0
   -1.8030    1.2990   -1.8750 H   0  0
   -1.7910    0.5230    1.3460 H   0  0
   -1.9120    1.8850    0.2850 H   0  0
  -10.7190   -2.2090   -0.9760 H   0  0
  -10.3810    1.8160    0.5270 H   0  0
    1.2320    1.7070   -0.6050 H   0  0
    1.0370   -1.7600   -1.7730 H   0  0
    1.4220   -0.1230   -2.2150 H   0  0
   -0.3180   -1.0100    1.6430 H   0  0
    1.3950   -1.3690    1.4450 H   0  0
    0.1910   -2.2910    0.5470 H   0  0
    0.0900    2.6600    1.2090 H   0  0
    0.1930    1.2090    2.1680 H   0  0
  -11.7790   -0.1250   -0.1560 H   0  0
    2.5120    0.1910    1.7010 H   0  0
    3.4980   -1.2230   -1.8240 H   0  0
    3.5220    1.0230   -1.0310 H   0  0
    2.4020    2.6480    2.0630 H   0  0
    3.0100    2.9370    0.4510 H   0  0
    2.8220   -2.9100   -0.6600 H   0  0
    4.8340    3.2010    2.0060 H   0  0
    4.4900    1.6800    2.7870 H   0  0
    5.6720   -1.2770   -1.2460 H   0  0
    5.6390    0.3750   -1.7950 H   0  0
    6.0270   -0.7540    1.9380 H   0  0
    4.2580   -0.8520    2.0590 H   0  0
    5.1330   -1.9120    0.9570 H   0  0
    6.9450    2.9020    1.1250 H   0  0
    7.6880   -0.8560    0.0960 H   0  0
    7.9530   -0.3130   -1.5490 H   0  0
  1  2  1  0
  1  3  1  0
  2  4  2  0
  2  5  1  0
  3  6  1  0
  4  7  1  0
  5  8  2  0
  6  9  2  0
  6 10  1  0
  7 11  1  0
  7 12  2  0
 10 13  1  0
 10 14  1  0
 10 15  1  0
 11 16  2  0
 12 17  1  0
 14 18  1  0
 14 19  1  0
 14 20  1  0
 15 21  1  0
 16 22  1  0
 18 23  1  0
 19 24  1  0
 25 23  1  0
 23 26  1  0
 24 27  1  0
 25 28  1  0
 26 29  1  0
 28 30  1  0
 28 31  1  0
 28 32  1  0
 30 33  2  0
 31 34  1  0
 33 35  1  0
 35 36  2  0
  8 11  1  0
 17 22  2  0
 18 21  1  0
 24 25  1  0
 29 30  1  0
 34 35  1  0
  3 37  1  0
  3 38  1  0
  5 39  1  0
 12 40  1  0
 13 41  1  0
 15 42  1  0
 15 43  1  0
 16 44  1  0
 17 45  1  0
 18 46  1  0
 19 47  1  0
 19 48  1  0
 20 49  1  0
 20 50  1  0
 20 51  1  0
 21 52  1  0
 21 53  1  0
 22 54  1  0
 23 55  1  0
 24 56  1  0
 25 57  1  0
 26 58  1  0
 26 59  1  0
 27 60  1  0
 29 61  1  0
 29 62  1  0
 31 63  1  0
 31 64  1  0
 32 65  1  0
 32 66  1  0
 32 67  1  0
 33 68  1  0
 34 69  1  0
 34 70  1  0
M  END
> <Name>
CHEMBL2024024

> <IC50 nM>
22.1

> <Molecule_ChEMBL_ID>
CHEMBL2024024

> <Smiles>
C[C@]12CCC(=O)C=C1CC[C@@H]1[C@@H]2[C@@H](O)C[C@@]2(C)[C@H]1CC[C@]2(O)C(=O)CSc1cnc2ccccc2n1

$$$$
CHEMBL2024029
  SciTegic08162514323D

 68 72  0  0  1  0            999 V2000
   -4.6560   -2.0290   -1.1000 S   0  0
   -6.2440   -1.5330   -0.8160 C   0  0
   -3.7190   -0.7500   -0.3590 C   0  0
   -7.2330   -2.3090   -1.3570 N   0  0
   -6.5740   -0.3850   -0.0680 C   0  0
   -2.2540   -1.0060   -0.5880 C   0  0
   -8.5450   -1.9820   -1.1800 C   0  0
   -7.9220   -0.0350    0.1250 C   0  0
   -1.8520   -2.1090   -0.8690 O   0  0
   -1.3010    0.1580   -0.4530 C   0  0  2  0  0  0
   -8.9200   -0.8460   -0.4390 C   0  0
   -9.5940   -2.8480   -1.7810 C   0  0
   -1.3580    0.8750   -1.6760 O   0  0
    0.1560   -0.2360   -0.1110 C   0  0  2  0  0  0
   -1.6600    1.1190    0.6970 C   0  0
    0.7400    1.1150    0.3240 C   0  0  1  0  0  0
    1.0410   -0.7750   -1.2540 C   0  0
    0.1090   -1.2130    1.0760 C   0  0
   -0.3400    1.6520    1.2640 C   0  0
    2.1640    0.9940    0.8930 C   0  0  1  0  0  0
    2.5290   -0.8910   -0.8460 C   0  0  1  0  0  0
    3.0920    0.4160   -0.2070 C   0  0  2  0  0  0
    2.6350    2.3970    1.3070 C   0  0
    2.6840   -1.9980    0.0200 O   0  0
    4.5920    0.3560    0.2360 C   0  0  2  0  0  0
    4.0840    2.3910    1.7930 C   0  0
    5.0310    1.6900    0.8400 C   0  0
    5.4630   -0.0180   -0.9920 C   0  0
    4.8140   -0.6720    1.3540 C   0  0
    6.2320    2.2440    0.5660 C   0  0
    6.9650    0.1910   -0.7660 C   0  0
    7.2420    1.5900   -0.2810 C   0  0
    8.2640    2.1660   -0.5760 O   0  0
   -3.9280   -0.7210    0.7110 H   0  0
   -4.0000    0.2070   -0.7970 H   0  0
   -5.7930    0.2270    0.3570 H   0  0
   -8.1860    0.8440    0.6970 H   0  0
   -9.9610   -0.5940   -0.3030 H   0  0
   -9.4980   -3.8590   -1.3890 H   0  0
  -10.5760   -2.4120   -1.5920 H   0  0
   -9.4510   -2.8930   -2.8590 H   0  0
   -2.2540    1.2360   -1.7540 H   0  0
   -2.1900    0.6000    1.4840 H   0  0
   -2.3090    1.9260    0.3790 H   0  0
    0.7850    1.7730   -0.5350 H   0  0
    0.9860   -0.1020   -2.1090 H   0  0
    0.6580   -1.7320   -1.6090 H   0  0
   -0.6520   -0.9300    1.8030 H   0  0
    1.0680   -1.2400    1.5900 H   0  0
   -0.1170   -2.2230    0.7340 H   0  0
   -0.3240    2.7320    1.3110 H   0  0
   -0.1860    1.2810    2.2680 H   0  0
    2.1680    0.3400    1.7640 H   0  0
    3.1000   -1.1330   -1.7400 H   0  0
    3.0590    1.1470   -1.0160 H   0  0
    1.9940    2.7970    2.0940 H   0  0
    2.5450    3.0820    0.4610 H   0  0
    2.4840   -2.7950   -0.4980 H   0  0
    4.4040    3.4180    1.9690 H   0  0
    4.1330    1.8870    2.7600 H   0  0
    5.2910   -1.0530   -1.2810 H   0  0
    5.1600    0.5880   -1.8480 H   0  0
    5.7420   -0.4880    1.8950 H   0  0
    4.8590   -1.6820    0.9450 H   0  0
    3.9960   -0.6430    2.0720 H   0  0
    6.4770    3.2090    0.9860 H   0  0
    7.3400   -0.5210   -0.0310 H   0  0
    7.5100    0.0060   -1.6930 H   0  0
  1  2  1  0
  1  3  1  0
  2  4  2  0
  2  5  1  0
  3  6  1  0
  4  7  1  0
  5  8  2  0
  6  9  2  0
  6 10  1  0
  7 11  2  0
  7 12  1  0
 10 13  1  0
 10 14  1  0
 10 15  1  0
 14 16  1  0
 14 17  1  0
 14 18  1  0
 15 19  1  0
 16 20  1  0
 17 21  1  0
 22 20  1  0
 20 23  1  0
 21 24  1  0
 22 25  1  0
 23 26  1  0
 25 27  1  0
 25 28  1  0
 25 29  1  0
 27 30  2  0
 28 31  1  0
 30 32  1  0
 32 33  2  0
  8 11  1  0
 16 19  1  0
 21 22  1  0
 26 27  1  0
 31 32  1  0
  3 34  1  0
  3 35  1  0
  5 36  1  0
  8 37  1  0
 11 38  1  0
 12 39  1  0
 12 40  1  0
 12 41  1  0
 13 42  1  0
 15 43  1  0
 15 44  1  0
 16 45  1  0
 17 46  1  0
 17 47  1  0
 18 48  1  0
 18 49  1  0
 18 50  1  0
 19 51  1  0
 19 52  1  0
 20 53  1  0
 21 54  1  0
 22 55  1  0
 23 56  1  0
 23 57  1  0
 24 58  1  0
 26 59  1  0
 26 60  1  0
 28 61  1  0
 28 62  1  0
 29 63  1  0
 29 64  1  0
 29 65  1  0
 30 66  1  0
 31 67  1  0
 31 68  1  0
M  END
> <Name>
CHEMBL2024029

> <IC50 nM>
127

> <Molecule_ChEMBL_ID>
CHEMBL2024029

> <Smiles>
Cc1cccc(SCC(=O)[C@@]2(O)CC[C@H]3[C@@H]4CCC5=CC(=O)CC[C@]5(C)[C@H]4[C@@H](O)C[C@@]32C)n1

$$$$
CHEMBL2022653
  SciTegic08162514323D

 84 91  0  0  1  0            999 V2000
   -6.0860   -0.1720   -1.4300 S   0  0
   -7.5450   -0.2640   -0.5860 C   0  0
   -4.9240    0.1190   -0.1540 C   0  0
   -7.6000   -0.1170    0.7770 N   0  0
   -8.7380   -0.4880   -1.2230 N   0  0
   -3.5450    0.2310   -0.7480 C   0  0
   -8.9220   -0.2600    1.0080 C   0  0
   -9.6060   -0.4800   -0.1890 C   0  0
   -9.0000   -0.6850   -2.6580 C   0  0
   -3.3770    0.1900   -1.9430 O   0  0
   -2.3770    0.3910    0.1970 C   0  0  2  0  0  0
   -9.6150   -0.2090    2.2400 C   0  0
  -11.0100   -0.6580   -0.1990 C   0  0
   -2.3910    1.7360    0.6450 O   0  0
   -0.9980    0.0290   -0.4080 C   0  0  2  0  0  0
   -2.4410   -0.5370    1.4280 C   0  0
  -11.0220   -0.3870    2.2440 C   0  0
  -11.7170   -0.6090    1.0270 C   0  0
   -0.1250   -0.0570    0.8590 C   0  0  1  0  0  0
   -0.3610    1.0330   -1.3890 C   0  0
   -1.1480   -1.3530   -1.0640 C   0  0
   -0.9960   -0.9100    1.7850 C   0  0
    1.2850   -0.5800    0.5350 C   0  0  1  0  0  0
    1.1170    0.6930   -1.7030 C   0  0  1  0  0  0
    1.9470    0.4610   -0.4120 C   0  0  2  0  0  0
    2.1390   -0.8830    1.7930 C   0  0
    1.1820   -0.4370   -2.5530 O   0  0
    3.4590    0.1540   -0.6150 C   0  0  2  0  0  0
    3.3160    0.0800    2.0020 C   0  0
    4.1540    0.2560    0.7520 C   0  0
    4.1000    1.1020   -1.6800 C   0  0
    3.6500   -1.2970   -1.0860 C   0  0
    5.4830    0.4900    0.8420 C   0  0
    5.6230    1.0920   -1.6150 C   0  0
    6.2190    0.8110   -0.3970 C   0  0
    6.4960    1.3540   -2.6680 C   0  0
    7.5390    0.9220   -0.6970 N   0  0
    7.6820    1.2330   -2.0140 N   0  0
    8.5670    0.7500    0.1740 C   0  0
    9.6700    1.6270    0.1480 C   0  0
    8.5330   -0.3030    1.1070 C   0  0
   10.7330    1.4470    1.0510 C   0  0
    9.5980   -0.4800    2.0100 C   0  0
   10.6970    0.3950    1.9800 C   0  0
   -4.9550   -0.7010    0.5610 H   0  0
   -5.1780    1.0450    0.3630 H   0  0
   -8.0650   -0.6090   -3.2110 H   0  0
   -9.5020   -1.6410   -2.8090 H   0  0
   -9.6640    0.1020   -3.0180 H   0  0
   -9.0880   -0.0390    3.1680 H   0  0
  -11.5390   -0.8300   -1.1250 H   0  0
   -3.2400    1.8810    1.0920 H   0  0
   -2.9510   -0.0840    2.2680 H   0  0
   -2.9860   -1.4430    1.1990 H   0  0
  -11.5670   -0.3500    3.1760 H   0  0
  -12.7890   -0.7440    1.0370 H   0  0
   -0.0250    0.9220    1.3110 H   0  0
   -0.9470    1.0960   -2.3070 H   0  0
   -0.3830    2.0330   -0.9570 H   0  0
   -1.7250   -2.0390   -0.4430 H   0  0
   -0.1720   -1.8050   -1.2400 H   0  0
   -1.6540   -1.2710   -2.0250 H   0  0
   -0.7770   -0.7260    2.8260 H   0  0
   -0.8240   -1.9610    1.6000 H   0  0
    1.1860   -1.5230    0.0000 H   0  0
    1.5390    1.5220   -2.2720 H   0  0
    1.9120    1.4240    0.1020 H   0  0
    1.5250   -0.9060    2.6930 H   0  0
    2.5450   -1.8890    1.6970 H   0  0
    1.7870   -0.2150   -3.2770 H   0  0
    2.9380    1.0550    2.3090 H   0  0
    3.9360   -0.2810    2.8240 H   0  0
    3.7720    2.1270   -1.5040 H   0  0
    3.7720    0.8380   -2.6860 H   0  0
    4.6930   -1.5160   -1.3140 H   0  0
    3.0660   -1.4900   -1.9860 H   0  0
    3.3220   -1.9980   -0.3180 H   0  0
    5.9940    0.4510    1.7930 H   0  0
    6.3280    1.5920   -3.7110 H   0  0
    9.7150    2.4420   -0.5610 H   0  0
    7.6950   -0.9860    1.1460 H   0  0
   11.5780    2.1190    1.0290 H   0  0
    9.5700   -1.2890    2.7250 H   0  0
   11.5140    0.2580    2.6740 H   0  0
  1  2  1  0
  1  3  1  0
  2  4  2  0
  2  5  1  0
  3  6  1  0
  4  7  1  0
  5  8  1  0
  5  9  1  0
  6 10  2  0
  6 11  1  0
  7 12  1  0
  8 13  1  0
 11 14  1  0
 11 15  1  0
 11 16  1  0
 12 17  2  0
 13 18  2  0
 15 19  1  0
 15 20  1  0
 15 21  1  0
 16 22  1  0
 19 23  1  0
 20 24  1  0
 25 23  1  0
 23 26  1  0
 24 27  1  0
 25 28  1  0
 26 29  1  0
 28 30  1  0
 28 31  1  0
 28 32  1  0
 30 33  2  0
 31 34  1  0
 33 35  1  0
 34 36  1  0
 35 37  1  0
 36 38  2  0
 37 39  1  0
 39 40  2  0
 39 41  1  0
 40 42  1  0
 41 43  2  0
 42 44  2  0
  7  8  2  0
 17 18  1  0
 19 22  1  0
 24 25  1  0
 29 30  1  0
 34 35  2  0
 37 38  1  0
 43 44  1  0
  3 45  1  0
  3 46  1  0
  9 47  1  0
  9 48  1  0
  9 49  1  0
 12 50  1  0
 13 51  1  0
 14 52  1  0
 16 53  1  0
 16 54  1  0
 17 55  1  0
 18 56  1  0
 19 57  1  0
 20 58  1  0
 20 59  1  0
 21 60  1  0
 21 61  1  0
 21 62  1  0
 22 63  1  0
 22 64  1  0
 23 65  1  0
 24 66  1  0
 25 67  1  0
 26 68  1  0
 26 69  1  0
 27 70  1  0
 29 71  1  0
 29 72  1  0
 31 73  1  0
 31 74  1  0
 32 75  1  0
 32 76  1  0
 32 77  1  0
 33 78  1  0
 36 79  1  0
 40 80  1  0
 41 81  1  0
 42 82  1  0
 43 83  1  0
 44 84  1  0
M  END
> <Name>
CHEMBL2022653

> <IC50 nM>
4.7

> <Molecule_ChEMBL_ID>
CHEMBL2022653

> <Smiles>
Cn1c(SCC(=O)[C@@]2(O)CC[C@H]3[C@@H]4CCC5=Cc6c(cnn6-c6ccccc6)C[C@]5(C)[C@H]4[C@@H](O)C[C@@]32C)nc2ccccc21

$$$$
CHEMBL2022660
  SciTegic08162514323D

 83 90  0  0  1  0            999 V2000
    5.3540   -0.2910   -2.5900 S   0  0
    6.8930   -0.5820   -1.9530 C   0  0
    4.3810   -0.0760   -1.1520 C   0  0
    7.4470   -0.6680   -0.6880 N   0  0
    7.7460   -0.7670   -3.0800 C   0  0
    2.9550    0.1970   -1.5490 C   0  0
    8.7870   -0.9280   -0.4820 C   0  0
    9.1270   -1.0350   -2.9100 C   0  0
    2.6840    0.6130   -2.6500 O   0  0
    1.8730   -0.0640   -0.5290 C   0  0  2  0  0  0
    9.6600   -1.1170   -1.6000 C   0  0
    9.3190   -1.0100    0.8280 C   0  0
    1.5640   -1.4470   -0.6050 O   0  0
    0.6000    0.7970   -0.7050 C   0  0  2  0  0  0
    2.2910    0.2660    0.9200 C   0  0
   11.0370   -1.3830   -1.3980 C   0  0
   10.6940   -1.2750    1.0270 C   0  0
   -0.1000    0.5760    0.6460 C   0  0  1  0  0  0
   -0.3710    0.4080   -1.8360 C   0  0
    1.0430    2.2620   -0.8440 C   0  0
    1.0430    0.8010    1.6370 C   0  0
   11.5510   -1.4610   -0.0820 C   0  0
   -1.3570    1.4490    0.8090 C   0  0  1  0  0  0
   -1.7300    1.1330   -1.7320 C   0  0  1  0  0  0
   -2.3610    1.0270   -0.3140 C   0  0  2  0  0  0
   -1.9180    1.2740    2.2460 C   0  0
   -1.5800    2.4850   -2.1210 O   0  0
   -3.7480    1.7250   -0.1250 C   0  0  2  0  0  0
   -3.3440    1.8220    2.4180 C   0  0
   -4.1560    1.2580    1.2790 C   0  0
   -4.7890    1.3910   -1.2480 C   0  0
   -3.5740    3.2540   -0.1190 C   0  0
   -5.1150    0.3300    1.4920 C   0  0
   -5.6130    0.1410   -0.9860 C   0  0
   -5.7620   -0.2890    0.3220 C   0  0
   -6.2720   -0.6210   -1.9510 C   0  0
   -6.5900   -1.3570    0.1740 N   0  0
   -6.8670   -1.5390   -1.1470 N   0  0
   -7.0670   -2.1370    1.1800 C   0  0
   -8.4300   -2.4960    1.2090 C   0  0
   -6.2030   -2.5860    2.1970 C   0  0
   -8.9220   -3.3010    2.2500 C   0  0
   -6.6970   -3.3930    3.2360 C   0  0
   -8.0570   -3.7500    3.2640 C   0  0
    4.4300   -0.9780   -0.5430 H   0  0
    4.7700    0.7600   -0.5720 H   0  0
    7.3560   -0.7090   -4.0860 H   0  0
    9.7540   -1.1720   -3.7810 H   0  0
    8.6820   -0.8710    1.6910 H   0  0
    2.3610   -1.9320   -0.3380 H   0  0
    3.0570    1.0290    0.9360 H   0  0
    2.7050   -0.5880    1.4410 H   0  0
   11.7070   -1.5250   -2.2340 H   0  0
   11.0920   -1.3360    2.0290 H   0  0
   -0.4060   -0.4570    0.7290 H   0  0
   -0.5680   -0.6640   -1.8010 H   0  0
    0.0880    0.5880   -2.8090 H   0  0
    1.8460    2.5120   -0.1500 H   0  0
    0.2110    2.9380   -0.6480 H   0  0
    1.4020    2.4610   -1.8550 H   0  0
    1.1580    1.8540    1.8500 H   0  0
    0.8630    0.2990    2.5740 H   0  0
   12.6000   -1.6620    0.0760 H   0  0
   -1.1000    2.5020    0.6800 H   0  0
   -2.3890    0.6740   -2.4670 H   0  0
   -2.5410   -0.0430   -0.1820 H   0  0
   -1.2560    1.7540    2.9670 H   0  0
   -1.9240    0.2130    2.5060 H   0  0
   -1.3550    2.4880   -3.0640 H   0  0
   -3.3500    2.9120    2.3950 H   0  0
   -3.7580    1.5260    3.3830 H   0  0
   -5.5200    2.1990   -1.3030 H   0  0
   -4.3400    1.3560   -2.2380 H   0  0
   -4.4610    3.7400    0.2870 H   0  0
   -2.7070    3.5410    0.4770 H   0  0
   -3.4220    3.6290   -1.1310 H   0  0
   -5.3830    0.0270    2.4940 H   0  0
   -6.3260   -0.5410   -3.0290 H   0  0
   -9.1100   -2.1600    0.4390 H   0  0
   -5.1540   -2.3220    2.1930 H   0  0
   -9.9650   -3.5760    2.2720 H   0  0
   -6.0330   -3.7360    4.0160 H   0  0
   -8.4380   -4.3690    4.0630 H   0  0
  1  2  1  0
  1  3  1  0
  2  4  2  0
  2  5  1  0
  3  6  1  0
  4  7  1  0
  5  8  2  0
  6  9  2  0
  6 10  1  0
  7 11  1  0
  7 12  2  0
 10 13  1  0
 10 14  1  0
 10 15  1  0
 11 16  2  0
 12 17  1  0
 14 18  1  0
 14 19  1  0
 14 20  1  0
 15 21  1  0
 16 22  1  0
 18 23  1  0
 19 24  1  0
 25 23  1  0
 23 26  1  0
 24 27  1  0
 25 28  1  0
 26 29  1  0
 28 30  1  0
 28 31  1  0
 28 32  1  0
 30 33  2  0
 31 34  1  0
 33 35  1  0
 34 36  1  0
 35 37  1  0
 36 38  2  0
 37 39  1  0
 39 40  2  0
 39 41  1  0
 40 42  1  0
 41 43  2  0
 42 44  2  0
  8 11  1  0
 17 22  2  0
 18 21  1  0
 24 25  1  0
 29 30  1  0
 34 35  2  0
 37 38  1  0
 43 44  1  0
  3 45  1  0
  3 46  1  0
  5 47  1  0
  8 48  1  0
 12 49  1  0
 13 50  1  0
 15 51  1  0
 15 52  1  0
 16 53  1  0
 17 54  1  0
 18 55  1  0
 19 56  1  0
 19 57  1  0
 20 58  1  0
 20 59  1  0
 20 60  1  0
 21 61  1  0
 21 62  1  0
 22 63  1  0
 23 64  1  0
 24 65  1  0
 25 66  1  0
 26 67  1  0
 26 68  1  0
 27 69  1  0
 29 70  1  0
 29 71  1  0
 31 72  1  0
 31 73  1  0
 32 74  1  0
 32 75  1  0
 32 76  1  0
 33 77  1  0
 36 78  1  0
 40 79  1  0
 41 80  1  0
 42 81  1  0
 43 82  1  0
 44 83  1  0
M  END
> <Name>
CHEMBL2022660

> <IC50 nM>
14.8

> <Molecule_ChEMBL_ID>
CHEMBL2022660

> <Smiles>
C[C@]12Cc3cnn(-c4ccccc4)c3C=C1CC[C@@H]1[C@@H]2[C@@H](O)C[C@@]2(C)[C@H]1CC[C@]2(O)C(=O)CSc1ccc2ccccc2n1

$$$$
CHEMBL3261428
  SciTegic08162514323D

 65 69  0  0  1  0            999 V2000
    1.1680   -1.1500   -2.4140 S   0  0
    1.4920   -1.1370   -3.8300 O   0  0
    2.1860   -1.7950   -1.6000 O   0  0
    1.1390    0.5160   -1.9120 N   0  0
   -0.3030   -1.9980   -2.2050 C   0  0
    2.3850    1.2600   -1.9400 C   0  0  2  0  0  0
   -1.3650   -1.5980   -1.3770 C   0  0
   -0.6460   -3.2070   -2.8380 C   0  0
    2.2400    2.5760   -1.1760 C   0  0
    2.8580    1.4610   -3.3810 C   0  0
   -2.2990   -2.5590   -1.5290 N   0  0
   -1.5080   -0.3830   -0.4840 C   0  0
   -1.8850   -3.5080   -2.3850 N   0  0
    0.1500   -4.0430   -3.8200 C   0  0
    2.0080    2.3340    0.2540 N   0  0
   -2.6720   -4.6920   -2.7660 C   0  0
    1.8070    3.3710    1.0900 C   0  0
   -4.1070   -4.6490   -2.2520 C   0  0
   -2.1560   -5.9880   -2.1410 C   0  0
    1.5550    3.0330    2.4610 C   0  0
    1.8360    4.7290    0.6740 C   0  0
   -4.5640   -6.0760   -2.5200 C   0  0
   -3.3590   -6.9320   -2.1350 C   0  0
    1.3440    4.0760    3.3520 C   0  0
    1.5020    1.7400    2.9840 C   0  0
    1.6150    5.7600    1.6210 C   0  0
    1.1390    3.4320    4.5290 N   0  0
    1.3630    5.4410    2.9790 C   0  0
    1.2360    2.0800    4.2910 N   0  0
    0.8830    3.9980    5.7360 C   0  0
    1.5100    3.5180    6.9060 C   0  0
   -0.0160    5.0840    5.8480 C   0  0
    1.2480    4.0920    8.1170 N   0  0
   -0.2670    5.6500    7.0650 N   0  0
    0.3710    5.1390    8.1560 C   0  0
    0.4430    1.0290   -2.4710 H   0  0
    3.0490    0.5780   -1.4080 H   0  0
    1.4160    3.1660   -1.5780 H   0  0
    3.1330    3.1910   -1.2950 H   0  0
    3.1270    0.5080   -3.8340 H   0  0
    2.0760    1.9320   -3.9790 H   0  0
    3.7350    2.1050   -3.4120 H   0  0
   -2.3530   -0.4280    0.2010 H   0  0
   -1.6270    0.5080   -1.1020 H   0  0
   -0.6010   -0.2600    0.1070 H   0  0
    1.0960   -3.5960   -4.1250 H   0  0
   -0.4430   -4.2110   -4.7190 H   0  0
    0.3690   -5.0140   -3.3770 H   0  0
    1.9980    1.3980    0.6070 H   0  0
   -2.6680   -4.7740   -3.8440 H   0  0
   -4.7150   -3.9220   -2.7740 H   0  0
   -4.1480   -4.4280   -1.1930 H   0  0
   -1.8240   -5.8260   -1.1230 H   0  0
   -1.3220   -6.3990   -2.6920 H   0  0
    2.0260    4.9860   -0.3570 H   0  0
   -5.4510   -6.3340   -1.9610 H   0  0
   -4.7910   -6.2010   -3.5700 H   0  0
   -3.4900   -7.3620   -1.1500 H   0  0
   -3.2300   -7.7500   -2.8300 H   0  0
    1.6230    0.7520    2.5590 H   0  0
    1.6370    6.7930    1.3070 H   0  0
    1.1930    6.2230    3.7030 H   0  0
    2.2030    2.6890    6.8630 H   0  0
   -0.5140    5.4800    4.9730 H   0  0
    0.1660    5.5900    9.1170 H   0  0
  1  2  2  0
  1  3  2  0
  1  4  1  0
  1  5  1  0
  4  6  1  0
  5  7  1  0
  5  8  2  0
  6  9  1  0
  6 10  1  0
  7 11  2  0
  7 12  1  0
  8 13  1  0
  8 14  1  0
  9 15  1  0
 13 16  1  0
 15 17  1  0
 16 18  1  0
 16 19  1  0
 17 20  2  0
 17 21  1  0
 18 22  1  0
 19 23  1  0
 20 24  1  0
 20 25  1  0
 21 26  2  0
 24 27  1  0
 24 28  2  0
 25 29  2  0
 27 30  1  0
 30 31  2  0
 30 32  1  0
 31 33  1  0
 32 34  2  0
 33 35  2  0
 11 13  1  0
 22 23  1  0
 26 28  1  0
 27 29  1  0
 34 35  1  0
  4 36  1  0
  6 37  1  0
  9 38  1  0
  9 39  1  0
 10 40  1  0
 10 41  1  0
 10 42  1  0
 12 43  1  0
 12 44  1  0
 12 45  1  0
 14 46  1  0
 14 47  1  0
 14 48  1  0
 15 49  1  0
 16 50  1  0
 18 51  1  0
 18 52  1  0
 19 53  1  0
 19 54  1  0
 21 55  1  0
 22 56  1  0
 22 57  1  0
 23 58  1  0
 23 59  1  0
 25 60  1  0
 26 61  1  0
 28 62  1  0
 31 63  1  0
 32 64  1  0
 35 65  1  0
M  END
> <Name>
CHEMBL3261428

> <IC50 nM>
5.7

> <Molecule_ChEMBL_ID>
CHEMBL3261428

> <Smiles>
Cc1nn(C2CCCC2)c(C)c1S(=O)(=O)N[C@@H](C)CNc1cccc2c1cnn2-c1cncnc1

$$$$
CHEMBL3261421
  SciTegic08162514323D

 59 62  0  0  1  0            999 V2000
   -0.9610   -3.5680    1.3690 S   0  0
   -1.6030   -3.8630    2.6370 O   0  0
   -1.3120   -4.5080    0.3180 O   0  0
   -1.5820   -2.0250    0.8610 N   0  0
    0.7520   -3.6310    1.6010 C   0  0
   -3.0000   -1.9260    0.5600 C   0  0  2  0  0  0
    1.3010   -3.3340    2.8610 C   0  0
    1.5940   -3.9770    0.5270 C   0  0
   -3.2930   -0.6410   -0.2150 C   0  0
   -3.8300   -2.0470    1.8380 C   0  0
    2.6930   -3.3850    3.0490 C   0  0
    0.4160   -2.9690    4.0000 C   0  0
    2.9860   -4.0250    0.7170 C   0  0
    1.0200   -4.2890   -0.8090 C   0  0
   -2.3440   -0.5620   -1.6820 S   0  0
    3.5370   -3.7300    1.9780 C   0  0
   -1.9730    1.0820   -1.7950 C   0  0
    5.0100   -3.7830    2.1780 C   0  0
   -0.8030    1.8810   -1.9040 C   0  0
   -3.2230    1.7740   -1.7660 C   0  0
   -0.8870    3.2600   -1.9770 C   0  0
    0.4570    1.3070   -1.9420 C   0  0
   -3.2970    3.1900   -1.8420 C   0  0
    0.4160    3.6270   -2.0690 N   0  0
   -2.1130    3.9570   -1.9490 C   0  0
    1.1780    2.4790   -2.0450 N   0  0
    0.9020    4.8910   -2.1660 C   0  0
    0.3590    5.9200   -1.3730 C   0  0
    1.9530    5.1780   -3.0590 C   0  0
    0.8630    7.2290   -1.4750 C   0  0
    2.4550    6.4860   -3.1580 C   0  0
    1.9100    7.5120   -2.3670 C   0  0
    2.3870    8.7520   -2.4610 F   0  0
   -1.3530   -1.3140    1.5700 H   0  0
   -3.1410   -2.8010   -0.0760 H   0  0
   -3.0860    0.2340    0.3980 H   0  0
   -4.3520   -0.5740   -0.4630 H   0  0
   -4.8770   -1.8180    1.6410 H   0  0
   -3.7560   -3.0530    2.2520 H   0  0
   -3.4730   -1.3500    2.5960 H   0  0
    3.1170   -3.1580    4.0180 H   0  0
   -0.3570   -2.2440    3.7520 H   0  0
    1.0180   -2.5510    4.8090 H   0  0
   -0.0760   -3.8630    4.3810 H   0  0
    3.6350   -4.2910   -0.1060 H   0  0
    0.2540   -3.5900   -1.1430 H   0  0
    0.5760   -5.2850   -0.7870 H   0  0
    1.8170   -4.2950   -1.5530 H   0  0
    5.5720   -4.0550    1.2850 H   0  0
    5.2440   -4.5100    2.9550 H   0  0
    5.3650   -2.8090    2.5120 H   0  0
   -4.1480    1.2230   -1.6860 H   0  0
    0.8180    0.2870   -1.9030 H   0  0
   -4.2580    3.6800   -1.8190 H   0  0
   -2.1520    5.0350   -2.0080 H   0  0
   -0.4470    5.7230   -0.6800 H   0  0
    2.3850    4.4020   -3.6760 H   0  0
    0.4410    8.0140   -0.8630 H   0  0
    3.2620    6.7010   -3.8460 H   0  0
  1  2  2  0
  1  3  2  0
  1  4  1  0
  1  5  1  0
  4  6  1  0
  5  7  2  0
  5  8  1  0
  6  9  1  0
  6 10  1  0
  7 11  1  0
  7 12  1  0
  8 13  2  0
  8 14  1  0
  9 15  1  0
 11 16  2  0
 15 17  1  0
 16 18  1  0
 17 19  2  0
 17 20  1  0
 19 21  1  0
 19 22  1  0
 20 23  2  0
 21 24  1  0
 21 25  2  0
 22 26  2  0
 24 27  1  0
 27 28  2  0
 27 29  1  0
 28 30  1  0
 29 31  2  0
 30 32  2  0
 32 33  1  0
 13 16  1  0
 23 25  1  0
 24 26  1  0
 31 32  1  0
  4 34  1  0
  6 35  1  0
  9 36  1  0
  9 37  1  0
 10 38  1  0
 10 39  1  0
 10 40  1  0
 11 41  1  0
 12 42  1  0
 12 43  1  0
 12 44  1  0
 13 45  1  0
 14 46  1  0
 14 47  1  0
 14 48  1  0
 18 49  1  0
 18 50  1  0
 18 51  1  0
 20 52  1  0
 22 53  1  0
 23 54  1  0
 25 55  1  0
 28 56  1  0
 29 57  1  0
 30 58  1  0
 31 59  1  0
M  END
> <Name>
CHEMBL3261421

> <IC50 nM>
7.7

> <Molecule_ChEMBL_ID>
CHEMBL3261421

> <Smiles>
Cc1cc(C)c(S(=O)(=O)NC(C)CSc2cccc3c2cnn3-c2ccc(F)cc2)c(C)c1

$$$$
CHEMBL3261406
  SciTegic08162514323D

 59 62  0  0  1  0            999 V2000
   -0.0960   -2.3360    0.4730 S   0  0
    0.6600   -3.2050   -0.4120 O   0  0
   -0.0700   -0.9410    0.0640 O   0  0
   -1.7540   -2.8440    0.3440 N   0  0
    0.5860   -2.4490    2.0590 C   0  0
   -2.3830   -2.7950   -0.9650 C   0  0  2  0  0  0
    1.6370   -3.3520    2.3090 C   0  0
    0.0880   -1.6410    3.0960 C   0  0
   -2.6840   -1.3480   -1.3590 C   0  0
   -3.6270   -3.6840   -0.9960 C   0  0
    2.1890   -3.4410    3.5980 C   0  0
    2.1680   -4.2090    1.2170 C   0  0
    0.6430   -1.7340    4.3850 C   0  0
   -1.0240   -0.6850    2.8400 C   0  0
   -1.5700   -0.8070   -2.0570 O   0  0
    1.6930   -2.6350    4.6370 C   0  0
   -1.4670    0.5270   -2.1370 C   0  0
    2.2790   -2.7320    6.0000 C   0  0
   -0.2830    1.3090   -2.2460 C   0  0
   -2.7090    1.2230   -2.1090 C   0  0
   -0.3570    2.6880   -2.3180 C   0  0
    0.9750    0.7270   -2.2810 C   0  0
   -2.7700    2.6390   -2.1860 C   0  0
    0.9490    3.0470   -2.4100 N   0  0
   -1.5800    3.3950   -2.2930 C   0  0
    1.7010    1.8950   -2.3870 N   0  0
    1.4430    4.3090   -2.5080 C   0  0
    2.4900    4.7250   -1.6620 C   0  0
    0.9120    5.2050   -3.4550 C   0  0
    3.0020    6.0290   -1.7640 C   0  0
    1.4260    6.5100   -3.5550 C   0  0
    2.4690    6.9220   -2.7090 C   0  0
    2.9550    8.1580   -2.8050 F   0  0
   -1.8500   -3.8030    0.7110 H   0  0
   -1.5960   -3.2090   -1.5940 H   0  0
   -2.8610   -0.7360   -0.4750 H   0  0
   -3.5530   -1.2990   -2.0140 H   0  0
   -4.0740   -3.6860   -1.9880 H   0  0
   -3.3750   -4.7070   -0.7150 H   0  0
   -4.3770   -3.3220   -0.2930 H   0  0
    2.9960   -4.1350    3.7910 H   0  0
    1.4180   -4.8340    0.7320 H   0  0
    2.9410   -4.8650    1.6130 H   0  0
    2.6230   -3.5820    0.4490 H   0  0
    0.2620   -1.1130    5.1840 H   0  0
   -0.7850    0.0960    2.1170 H   0  0
   -1.3090   -0.1990    3.7720 H   0  0
   -1.8910   -1.2280    2.4690 H   0  0
    1.8200   -2.0680    6.7330 H   0  0
    3.3420   -2.4980    5.9550 H   0  0
    2.1780   -3.7540    6.3650 H   0  0
   -3.6290    0.6640   -2.0270 H   0  0
    1.3260   -0.2970   -2.2440 H   0  0
   -3.7270    3.1410   -2.1620 H   0  0
   -1.6090    4.4730   -2.3520 H   0  0
    2.9120    4.0510   -0.9280 H   0  0
    0.1090    4.9060   -4.1130 H   0  0
    3.8050    6.3420   -1.1110 H   0  0
    1.0140    7.1940   -4.2830 H   0  0
  1  2  2  0
  1  3  2  0
  1  4  1  0
  1  5  1  0
  4  6  1  0
  5  7  2  0
  5  8  1  0
  6  9  1  0
  6 10  1  0
  7 11  1  0
  7 12  1  0
  8 13  2  0
  8 14  1  0
  9 15  1  0
 11 16  2  0
 15 17  1  0
 16 18  1  0
 17 19  2  0
 17 20  1  0
 19 21  1  0
 19 22  1  0
 20 23  2  0
 21 24  1  0
 21 25  2  0
 22 26  2  0
 24 27  1  0
 27 28  2  0
 27 29  1  0
 28 30  1  0
 29 31  2  0
 30 32  2  0
 32 33  1  0
 13 16  1  0
 23 25  1  0
 24 26  1  0
 31 32  1  0
  4 34  1  0
  6 35  1  0
  9 36  1  0
  9 37  1  0
 10 38  1  0
 10 39  1  0
 10 40  1  0
 11 41  1  0
 12 42  1  0
 12 43  1  0
 12 44  1  0
 13 45  1  0
 14 46  1  0
 14 47  1  0
 14 48  1  0
 18 49  1  0
 18 50  1  0
 18 51  1  0
 20 52  1  0
 22 53  1  0
 23 54  1  0
 25 55  1  0
 28 56  1  0
 29 57  1  0
 30 58  1  0
 31 59  1  0
M  END
> <Name>
CHEMBL3261406

> <IC50 nM>
60

> <Molecule_ChEMBL_ID>
CHEMBL3261406

> <Smiles>
Cc1cc(C)c(S(=O)(=O)N[C@@H](C)COc2cccc3c2cnn3-c2ccc(F)cc2)c(C)c1

$$$$
CHEMBL3261175
  SciTegic08162514323D

 55 57  0  0  1  0            999 V2000
   -1.1230   -2.7500   -0.1070 S   0  0
   -2.3610   -3.5100   -0.0820 O   0  0
   -0.3010   -3.0350   -1.2700 O   0  0
   -1.5900   -1.0780   -0.2480 N   0  0
   -0.2170   -3.1410    1.3110 C   0  0
   -2.2380   -0.6520   -1.4750 C   0  0  2  0  0  0
   -0.3610   -4.4060    1.9120 C   0  0
    0.6680   -2.1930    1.8630 C   0  0
   -2.2810    0.8730   -1.5570 C   0  0
   -3.6230   -1.2870   -1.5980 C   0  0
    0.3790   -4.7230    3.0640 C   0  0
   -1.2910   -5.4100    1.3320 C   0  0
    1.4040   -2.5140    3.0180 C   0  0
    0.8240   -0.8560    1.2340 C   0  0
   -0.9260    1.4340   -1.6500 N   0  0
    1.2620   -3.7780    3.6190 C   0  0
   -0.7480    2.7690   -1.6640 C   0  0
    2.0410   -4.1130    4.8380 C   0  0
    0.5470    3.3830   -1.6780 C   0  0
   -1.8980    3.5980   -1.6640 C   0  0
    0.6640    4.8140   -1.6910 C   0  0
    1.7500    2.6090   -1.6800 C   0  0
   -1.7810    5.0040   -1.6800 C   0  0
    1.9060    5.4260   -1.7050 N   0  0
   -0.5080    5.6090   -1.6910 C   0  0
    3.0080    3.2580   -1.6930 C   0  0
    3.0590    4.6700   -1.7050 C   0  0
    4.3620    5.3520   -1.7190 C   0  0
   -2.1970   -0.8240    0.5450 H   0  0
   -1.5600   -1.0590   -2.2250 H   0  0
   -2.7810    1.2930   -0.6840 H   0  0
   -2.8630    1.1970   -2.4200 H   0  0
   -3.5430   -2.3650   -1.7340 H   0  0
   -4.2210   -1.0860   -0.7070 H   0  0
   -4.1600   -0.8830   -2.4550 H   0  0
    0.2680   -5.6940    3.5270 H   0  0
   -1.2220   -5.5140    0.2500 H   0  0
   -2.3180   -5.1370    1.5760 H   0  0
   -1.0940   -6.3870    1.7750 H   0  0
    2.0820   -1.7870    3.4430 H   0  0
    0.8850   -0.8770    0.1460 H   0  0
    1.7330   -0.3830    1.6090 H   0  0
   -0.0190   -0.2230    1.5120 H   0  0
   -0.1350    0.8240   -1.7030 H   0  0
    2.6960   -3.3150    5.1860 H   0  0
    2.6600   -4.9900    4.6430 H   0  0
    1.3580   -4.3630    5.6490 H   0  0
   -2.8900    3.1680   -1.6540 H   0  0
    1.7310    1.5290   -1.6700 H   0  0
   -2.6700    5.6170   -1.6800 H   0  0
   -0.4430    6.6890   -1.7030 H   0  0
    3.9160    2.6740   -1.6930 H   0  0
    4.2990    6.4410   -1.7270 H   0  0
    4.9240    5.0450   -2.6020 H   0  0
    4.9360    5.0590   -0.8400 H   0  0
  1  2  2  0
  1  3  2  0
  1  4  1  0
  1  5  1  0
  4  6  1  0
  5  7  2  0
  5  8  1  0
  6  9  1  0
  6 10  1  0
  7 11  1  0
  7 12  1  0
  8 13  2  0
  8 14  1  0
  9 15  1  0
 11 16  2  0
 15 17  1  0
 16 18  1  0
 17 19  2  0
 17 20  1  0
 19 21  1  0
 19 22  1  0
 20 23  2  0
 21 24  1  0
 21 25  2  0
 22 26  2  0
 24 27  2  0
 27 28  1  0
 13 16  1  0
 23 25  1  0
 26 27  1  0
  4 29  1  0
  6 30  1  0
  9 31  1  0
  9 32  1  0
 10 33  1  0
 10 34  1  0
 10 35  1  0
 11 36  1  0
 12 37  1  0
 12 38  1  0
 12 39  1  0
 13 40  1  0
 14 41  1  0
 14 42  1  0
 14 43  1  0
 15 44  1  0
 18 45  1  0
 18 46  1  0
 18 47  1  0
 20 48  1  0
 22 49  1  0
 23 50  1  0
 25 51  1  0
 26 52  1  0
 28 53  1  0
 28 54  1  0
 28 55  1  0
M  END
> <Name>
CHEMBL3261175

> <IC50 nM>
160

> <Molecule_ChEMBL_ID>
CHEMBL3261175

> <Smiles>
Cc1cc(C)c(S(=O)(=O)N[C@@H](C)CNc2cccc3nc(C)ccc23)c(C)c1

$$$$
CHEMBL3261400
  SciTegic08162514323D

 43 45  0  0  1  0            999 V2000
   -0.6660   -2.8770    0.0780 S   0  0
   -1.9120   -3.6210    0.1460 O   0  0
    0.0940   -3.1470   -1.1310 O   0  0
   -1.1130   -1.1970    0.0000 N   0  0
    0.3030   -3.3170    1.4370 C   0  0
   -1.8320   -0.7360   -1.1760 C   0  0  2  0  0  0
    0.7090   -4.6540    1.6030 C   0  0
    0.6820   -2.3360    2.3710 C   0  0
   -1.9100    0.7910   -1.1900 C   0  0
   -3.2070   -1.3990   -1.2560 C   0  0
    1.4980   -5.0000    2.7130 C   0  0
    1.4690   -2.6900    3.4750 C   0  0
   -0.5980    1.3320   -1.2030 O   0  0
    1.9080   -6.3690    2.8730 C   0  0
    1.8810   -4.0220    3.6520 C   0  0
   -0.4670    2.6680   -1.2170 C   0  0
    2.2400   -7.4750    3.0020 N   0  0
    0.8140    3.2810   -1.2330 C   0  0
   -1.6310    3.4730   -1.2190 C   0  0
    0.9280    4.7110   -1.2460 C   0  0
    1.9980    2.4940   -1.2330 C   0  0
   -1.5230    4.8810   -1.2330 C   0  0
    2.1720    5.3160   -1.2580 N   0  0
   -0.2500    5.4980   -1.2460 C   0  0
    3.2620    3.1370   -1.2460 C   0  0
    3.3200    4.5510   -1.2580 C   0  0
   -1.6660   -0.9510    0.8340 H   0  0
   -1.1840   -1.0980   -1.9750 H   0  0
    0.4020   -5.3950    0.8670 H   0  0
    0.3650   -1.3150    2.2320 H   0  0
   -2.4220    1.1580   -0.3010 H   0  0
   -2.4340    1.1410   -2.0800 H   0  0
   -3.1110   -2.4570   -1.5000 H   0  0
   -3.7400   -1.2990   -0.3110 H   0  0
   -3.8150   -0.9340   -2.0330 H   0  0
    1.7580   -1.9410    4.1870 H   0  0
    2.4860   -4.2870    4.5060 H   0  0
   -2.6070    3.0100   -1.2070 H   0  0
    1.9570    1.4140   -1.2230 H   0  0
   -2.4160    5.4880   -1.2330 H   0  0
   -0.1930    6.5780   -1.2560 H   0  0
    4.1700    2.5530   -1.2460 H   0  0
    4.2810    5.0410   -1.2700 H   0  0
  1  2  2  0
  1  3  2  0
  1  4  1  0
  1  5  1  0
  4  6  1  0
  5  7  2  0
  5  8  1  0
  6  9  1  0
  6 10  1  0
  7 11  1  0
  8 12  2  0
  9 13  1  0
 11 14  1  0
 11 15  2  0
 13 16  1  0
 14 17  3  0
 16 18  2  0
 16 19  1  0
 18 20  1  0
 18 21  1  0
 19 22  2  0
 20 23  1  0
 20 24  2  0
 21 25  2  0
 23 26  2  0
 12 15  1  0
 22 24  1  0
 25 26  1  0
  4 27  1  0
  6 28  1  0
  7 29  1  0
  8 30  1  0
  9 31  1  0
  9 32  1  0
 10 33  1  0
 10 34  1  0
 10 35  1  0
 12 36  1  0
 15 37  1  0
 19 38  1  0
 21 39  1  0
 22 40  1  0
 24 41  1  0
 25 42  1  0
 26 43  1  0
M  END
> <Name>
CHEMBL3261400

> <IC50 nM>
1800

> <Molecule_ChEMBL_ID>
CHEMBL3261400

> <Smiles>
C[C@@H](COc1cccc2ncccc12)NS(=O)(=O)c1cccc(C#N)c1

$$$$
CHEMBL1684345
  SciTegic08162514323D

 62 66  0  0  1  0            999 V2000
    1.2580    1.9450    1.5510 F   0  0
    1.3240    0.6110    1.5630 C   0  0
    2.5820   -0.0430    1.5220 C   0  0
    0.1230   -0.1500    1.6210 C   0  0
    2.6500   -1.4570    1.5370 C   0  0
    3.8110    0.7420    1.4610 C   0  0
    0.1910   -1.5780    1.6350 C   0  0
   -1.1930    0.5490    1.6660 C   0  0  1  0  0  0
    3.8220   -2.0940    1.5000 F   0  0
    1.4610   -2.2170    1.5940 C   0  0
    4.6800    0.6620    0.3440 C   0  0
    4.1520    1.6080    2.5330 C   0  0
   -0.9320   -2.3440    1.6860 N   0  0
   -2.3280   -0.3510    1.1390 C   0  0  2  0  0  0
   -1.4770    1.0550    3.0860 C   0  0
    4.6270   -0.0720   -0.8360 N   0  0
    5.8340    1.4010    0.2890 C   0  0
    5.3500    2.3710    2.4730 C   0  0
   -2.3010   -1.7640    1.7680 C   0  0
   -2.2010   -0.4610   -0.2750 O   0  0
    5.7830    0.2560   -1.5860 C   0  0
    6.2050    2.2720    1.3440 C   0  0
    6.5310    1.1920   -0.8480 C   0  0
   -3.2810   -2.6850    1.0330 C   0  0
   -2.7090   -1.7050    3.2440 C   0  0
   -2.6090    0.6370   -0.9080 C   0  0
   -3.0920    1.5940   -0.3500 O   0  0
   -2.4550    0.6350   -2.2680 N   0  0
   -1.8650   -0.5450   -2.9510 C   0  0
   -2.8730    1.7970   -3.0880 C   0  0
   -2.0640   -0.4860   -4.4790 C   0  0
   -3.7580    1.3930   -4.2890 C   0  0
   -3.4860   -0.0250   -4.8220 C   0  0
   -1.1520    1.4240    1.0160 H   0  0
    1.5330   -3.2950    1.6050 H   0  0
    3.5140    1.6970    3.4020 H   0  0
   -0.8550   -3.3440    1.6740 H   0  0
   -3.2930    0.1230    1.3260 H   0  0
   -1.0840    2.0630    3.2210 H   0  0
   -2.5490    1.0630    3.2850 H   0  0
   -1.0040    0.4100    3.8260 H   0  0
    3.9140   -0.7090   -1.1070 H   0  0
    5.6110    3.0290    3.2890 H   0  0
    6.0140   -0.1640   -2.5550 H   0  0
    7.1150    2.8540    1.2990 H   0  0
    7.4710    1.6450   -1.1430 H   0  0
   -3.0200   -2.8050   -0.0180 H   0  0
   -4.2950   -2.2850    1.0800 H   0  0
   -3.2930   -3.6760    1.4880 H   0  0
   -1.8870   -1.3790    3.8810 H   0  0
   -3.0330   -2.6850    3.5940 H   0  0
   -3.5370   -1.0100    3.3870 H   0  0
   -0.8010   -0.6050   -2.7070 H   0  0
   -2.3340   -1.4530   -2.5630 H   0  0
   -3.3770    2.5470   -2.4710 H   0  0
   -1.9610    2.2600   -3.4610 H   0  0
   -1.8610   -1.4630   -4.9200 H   0  0
   -1.3440    0.2010   -4.9220 H   0  0
   -3.5860    2.1130   -5.0880 H   0  0
   -4.8150    1.4920   -4.0390 H   0  0
   -4.1900   -0.7230   -4.3710 H   0  0
   -3.6620   -0.0700   -5.8970 H   0  0
  1  2  1  0
  2  3  2  0
  2  4  1  0
  3  5  1  0
  3  6  1  0
  4  7  2  0
  4  8  1  0
  5  9  1  0
  5 10  2  0
  6 11  2  0
  6 12  1  0
  7 13  1  0
  8 14  1  0
  8 15  1  0
 11 16  1  0
 11 17  1  0
 12 18  2  0
 13 19  1  0
 14 20  1  0
 16 21  1  0
 17 22  2  0
 17 23  1  0
 19 24  1  0
 19 25  1  0
 20 26  1  0
 26 27  2  0
 26 28  1  0
 28 29  1  0
 28 30  1  0
 29 31  1  0
 30 32  1  0
 31 33  1  0
  7 10  1  0
 14 19  1  0
 18 22  1  0
 21 23  2  0
 32 33  1  0
  8 34  1  0
 10 35  1  0
 12 36  1  0
 13 37  1  0
 14 38  1  0
 15 39  1  0
 15 40  1  0
 15 41  1  0
 16 42  1  0
 18 43  1  0
 21 44  1  0
 22 45  1  0
 23 46  1  0
 24 47  1  0
 24 48  1  0
 24 49  1  0
 25 50  1  0
 25 51  1  0
 25 52  1  0
 29 53  1  0
 29 54  1  0
 30 55  1  0
 30 56  1  0
 31 57  1  0
 31 58  1  0
 32 59  1  0
 32 60  1  0
 33 61  1  0
 33 62  1  0
M  END
> <Name>
CHEMBL1684345

> <IC50 nM>
1000

> <Molecule_ChEMBL_ID>
CHEMBL1684345

> <Smiles>
C[C@H]1c2c(cc(F)c(-c3cccc4cc[nH]c34)c2F)NC(C)(C)[C@@H]1OC(=O)N1CCCCC1

$$$$
CHEMBL1668073
  SciTegic08162514323D

 72 76  0  0  1  0            999 V2000
   -1.8420   -4.7620   -1.7320 S   0  0
   -0.7730   -5.4260   -2.4590 O   0  0
   -3.0350   -5.5780   -1.5960 O   0  0
   -1.2420   -4.5140   -0.1170 N   0  0
   -2.2660   -3.3200   -2.5860 C   0  0
   -2.0680   -3.7600    0.8090 C   0  0  2  0  0  0
   -3.4530   -3.2720   -3.3380 C   0  0
   -1.4200   -2.1950   -2.5270 C   0  0
   -1.3460   -3.5760    2.1450 C   0  0
   -3.4380   -4.4220    0.9670 C   0  0
   -3.7950   -2.0980   -4.0330 C   0  0
   -4.3500   -4.4550   -3.4040 C   0  0
   -1.7660   -1.0240   -3.2230 C   0  0
   -0.1640   -2.2380   -1.7340 C   0  0
   -0.1450   -2.7440    1.9830 N   0  0
   -2.9530   -0.9730   -3.9750 C   0  0
   -0.2580   -1.4040    1.9120 C   0  0
   -3.3160    0.2670   -4.7090 C   0  0
    0.9750   -0.6760    1.8050 C   0  0
   -1.5020   -0.7210    1.9420 C   0  0
    0.8970    0.7090    1.7310 C   0  0
    2.2520   -1.2360    1.7660 C   0  0
   -1.5310    0.6950    1.8630 C   0  0
    2.2010    1.0780    1.6410 N   0  0
   -0.3220    1.4280    1.7560 C   0  0
    2.9650   -0.0630    1.6620 N   0  0
   -2.8180    1.4060    1.8930 C   0  0
    2.6860    2.3440    1.5430 C   0  0
    2.1540    3.3670    2.3520 C   0  0
    3.7190    2.6370    0.6330 C   0  0
    2.6560    4.6780    2.2500 C   0  0
    4.2210    3.9470    0.5330 C   0  0
    3.6900    4.9690    1.3420 C   0  0
    4.1780    6.2460    1.2440 N   0  0
    5.4670    6.4770    0.6620 C   0  0
    6.6680    6.0610    1.4860 C   0  0
    6.3340    7.5270    1.3260 C   0  0
   -1.0250   -5.4260    0.3130 H   0  0
   -2.1580   -2.8090    0.2850 H   0  0
   -1.0610   -4.5410    2.5650 H   0  0
   -2.0060   -3.1150    2.8790 H   0  0
   -3.9810   -3.9900    1.8070 H   0  0
   -4.0290   -4.3010    0.0590 H   0  0
   -3.3300   -5.4900    1.1540 H   0  0
   -4.7070   -2.0610   -4.6110 H   0  0
   -3.8420   -5.3910   -3.6410 H   0  0
   -5.1130   -4.2910   -4.1640 H   0  0
   -4.8540   -4.5840   -2.4470 H   0  0
   -1.1190   -0.1580   -3.1800 H   0  0
    0.3260   -3.2130   -1.7250 H   0  0
   -0.3750   -1.9630   -0.7010 H   0  0
    0.5450   -1.5140   -2.1350 H   0  0
    0.7580   -3.1740    1.9240 H   0  0
   -2.5940    1.0760   -4.6070 H   0  0
   -4.2790    0.6330   -4.3520 H   0  0
   -3.4200    0.0430   -5.7710 H   0  0
   -2.4280   -1.2740    2.0240 H   0  0
    2.6290   -2.2500    1.8030 H   0  0
   -0.3300    2.5080    1.6970 H   0  0
   -3.6880    0.7560    1.9840 H   0  0
   -2.9340    1.9880    0.9790 H   0  0
   -2.8320    2.1000    2.7330 H   0  0
    1.3590    3.1620    3.0550 H   0  0
    4.1410    1.8650    0.0040 H   0  0
    2.2340    5.4490    2.8790 H   0  0
    5.0160    4.1520   -0.1700 H   0  0
    3.3460    6.5980    1.6720 H   0  0
    5.5200    6.3710   -0.4220 H   0  0
    6.5080    5.6090    2.4670 H   0  0
    7.5370    5.6780    0.9490 H   0  0
    6.9770    8.1270    0.6820 H   0  0
    5.9490    8.0550    2.2010 H   0  0
  1  2  2  0
  1  3  2  0
  1  4  1  0
  1  5  1  0
  4  6  1  0
  5  7  2  0
  5  8  1  0
  6  9  1  0
  6 10  1  0
  7 11  1  0
  7 12  1  0
  8 13  2  0
  8 14  1  0
  9 15  1  0
 11 16  2  0
 15 17  1  0
 16 18  1  0
 17 19  2  0
 17 20  1  0
 19 21  1  0
 19 22  1  0
 20 23  2  0
 21 24  1  0
 21 25  2  0
 22 26  2  0
 23 27  1  0
 24 28  1  0
 28 29  2  0
 28 30  1  0
 29 31  1  0
 30 32  2  0
 31 33  2  0
 33 34  1  0
 34 35  1  0
 35 36  1  0
 35 37  1  0
 13 16  1  0
 23 25  1  0
 24 26  1  0
 32 33  1  0
 36 37  1  0
  4 38  1  0
  6 39  1  0
  9 40  1  0
  9 41  1  0
 10 42  1  0
 10 43  1  0
 10 44  1  0
 11 45  1  0
 12 46  1  0
 12 47  1  0
 12 48  1  0
 13 49  1  0
 14 50  1  0
 14 51  1  0
 14 52  1  0
 15 53  1  0
 18 54  1  0
 18 55  1  0
 18 56  1  0
 20 57  1  0
 22 58  1  0
 25 59  1  0
 27 60  1  0
 27 61  1  0
 27 62  1  0
 29 63  1  0
 30 64  1  0
 31 65  1  0
 32 66  1  0
 34 67  1  0
 35 68  1  0
 36 69  1  0
 36 70  1  0
 37 71  1  0
 37 72  1  0
M  END
> <Name>
CHEMBL1668073

> <IC50 nM>
7.94

> <Molecule_ChEMBL_ID>
CHEMBL1668073

> <Smiles>
Cc1cc(C)c(S(=O)(=O)N[C@@H](C)CNc2cc(C)cc3c2cnn3-c2ccc(NC3CC3)cc2)c(C)c1

$$$$
CHEMBL1668084
  SciTegic08162514323D

 66 68  0  0  1  0            999 V2000
   -3.3790   -6.8200    1.2700 S   0  0
   -4.6230   -7.3240    1.8220 O   0  0
   -3.0680   -7.3710   -0.0370 O   0  0
   -3.6170   -5.1130    1.0270 N   0  0
   -2.0470   -7.2150    2.3970 C   0  0
   -2.4810   -4.3200    0.5900 C   0  0  2  0  0  0
   -1.9260   -8.7290    2.5720 C   0  0
   -2.8440   -2.8360    0.5590 C   0  0
   -1.9570   -4.8300   -0.7520 C   0  0
   -0.7990   -9.1230    3.5270 C   0  0
   -1.6390   -2.0000    0.4810 N   0  0
   -1.7520   -0.6580    0.4120 C   0  0
   -0.5200    0.0700    0.3030 C   0  0
   -2.9940    0.0230    0.4410 C   0  0
   -0.5980    1.4530    0.2310 C   0  0
    0.7580   -0.4900    0.2660 C   0  0
   -3.0240    1.4410    0.3610 C   0  0
    0.7070    1.8220    0.1390 N   0  0
   -1.8160    2.1720    0.2560 C   0  0
    1.4710    0.6820    0.1600 N   0  0
   -4.3130    2.1500    0.3910 C   0  0
    1.1910    3.0880    0.0410 C   0  0
    2.2190    3.3850   -0.8750 C   0  0
    0.6660    4.1090    0.8570 C   0  0
    2.7190    4.6950   -0.9730 C   0  0
    1.1660    5.4180    0.7580 C   0  0
    3.8110    5.0100   -1.9450 C   0  0
    2.1910    5.7130   -0.1560 C   0  0
    4.2660    4.1520   -2.6640 O   0  0
    4.2850    6.2890   -2.0080 N   0  0
    5.3570    6.6130   -2.9590 C   0  0
    4.8180    6.6970   -4.3870 C   0  0
    6.1020    7.8810   -2.5350 C   0  0
   -3.9920   -4.6930    1.8890 H   0  0
   -1.1130   -6.7970    2.0160 H   0  0
   -2.2250   -6.7290    3.3540 H   0  0
   -1.7640   -4.5250    1.3870 H   0  0
   -2.8750   -9.1560    2.8990 H   0  0
   -1.8050   -9.2210    1.6070 H   0  0
   -3.4160   -2.5610    1.4430 H   0  0
   -3.4880   -2.6170   -0.2950 H   0  0
   -1.2420   -4.1390   -1.1990 H   0  0
   -2.7750   -4.9670   -1.4590 H   0  0
   -1.4570   -5.7910   -0.6310 H   0  0
   -0.7480  -10.2070    3.6370 H   0  0
    0.1620   -8.7580    3.1620 H   0  0
   -0.9630   -8.6970    4.5160 H   0  0
   -0.7340   -2.4260    0.4810 H   0  0
   -3.9200   -0.5290    0.5220 H   0  0
    1.1350   -1.5060    0.3010 H   0  0
   -1.8240    3.2520    0.1950 H   0  0
   -5.1820    1.5000    0.4750 H   0  0
   -4.4240    2.7400   -0.5200 H   0  0
   -4.3280    2.8380    1.2360 H   0  0
    2.6310    2.6090   -1.5080 H   0  0
   -0.1230    3.9020    1.5680 H   0  0
    0.7640    6.1990    1.3850 H   0  0
    2.5700    6.7230   -0.2270 H   0  0
    3.9000    6.9920   -1.4100 H   0  0
    5.9920    5.7360   -2.8380 H   0  0
    4.3300    5.7720   -4.6910 H   0  0
    5.6230    6.8970   -5.0940 H   0  0
    4.0900    7.5020   -4.4770 H   0  0
    6.4860    7.8030   -1.5200 H   0  0
    5.4410    8.7460   -2.5760 H   0  0
    6.9450    8.0720   -3.1970 H   0  0
  1  2  2  0
  1  3  2  0
  1  4  1  0
  1  5  1  0
  4  6  1  0
  5  7  1  0
  6  8  1  0
  6  9  1  0
  7 10  1  0
  8 11  1  0
 11 12  1  0
 12 13  2  0
 12 14  1  0
 13 15  1  0
 13 16  1  0
 14 17  2  0
 15 18  1  0
 15 19  2  0
 16 20  2  0
 17 21  1  0
 18 22  1  0
 22 23  2  0
 22 24  1  0
 23 25  1  0
 24 26  2  0
 25 27  1  0
 25 28  2  0
 27 29  2  0
 27 30  1  0
 30 31  1  0
 31 32  1  0
 31 33  1  0
 17 19  1  0
 18 20  1  0
 26 28  1  0
  4 34  1  0
  5 35  1  0
  5 36  1  0
  6 37  1  0
  7 38  1  0
  7 39  1  0
  8 40  1  0
  8 41  1  0
  9 42  1  0
  9 43  1  0
  9 44  1  0
 10 45  1  0
 10 46  1  0
 10 47  1  0
 11 48  1  0
 14 49  1  0
 16 50  1  0
 19 51  1  0
 21 52  1  0
 21 53  1  0
 21 54  1  0
 23 55  1  0
 24 56  1  0
 26 57  1  0
 28 58  1  0
 30 59  1  0
 31 60  1  0
 32 61  1  0
 32 62  1  0
 32 63  1  0
 33 64  1  0
 33 65  1  0
 33 66  1  0
M  END
> <Name>
CHEMBL1668084

> <IC50 nM>
12.59

> <Molecule_ChEMBL_ID>
CHEMBL1668084

> <Smiles>
CCCS(=O)(=O)N[C@@H](C)CNc1cc(C)cc2c1cnn2-c1cccc(C(=O)NC(C)C)c1

$$$$
CHEMBL3126952
  SciTegic08162514323D

 59 62  0  0  1  0            999 V2000
   -7.7910    0.8910   -2.4000 F   0  0
   -6.9340    0.7600   -1.3910 C   0  0
   -5.6660    0.1930   -1.6110 C   0  0
   -7.2970    1.1890   -0.1010 C   0  0
   -4.7600    0.0550   -0.5450 C   0  0
   -6.3930    1.0510    0.9650 C   0  0
   -5.1230    0.4840    0.7460 C   0  0
   -3.4220   -0.5470   -0.7990 C   0  0
   -4.1780    0.3460    1.8870 C   0  0
   -2.7010    0.8010   -0.8520 C   0  0
   -3.3830   -1.2910   -2.1330 C   0  0
   -2.9650   -1.4140    0.3750 C   0  0
   -1.1800    0.6580   -0.7870 C   0  0  1  0  0  0
   -0.8540   -0.6970   -1.0040 O   0  0
   -0.6150    1.4780   -1.9470 C   0  0
   -0.6060    1.0780    0.5660 C   0  0
   -1.2850    1.1600   -3.1000 F   0  0
    0.7170    1.1950   -2.1020 F   0  0
   -0.7720    2.8140   -1.6820 F   0  0
    0.8960    0.8960    0.6040 C   0  0
    1.8140    1.9840    0.5900 N   0  0
    1.6290   -0.3070    0.6580 C   0  0
    3.0880    1.4370    0.6330 C   0  0
    2.9160    0.0920    0.6720 C   0  0
    4.2290    2.1950    0.6310 N   0  0
    4.1110   -0.6760    0.7210 C   0  0
    5.3650    1.4590    0.6760 N   0  0
    5.3560    0.0490    0.7210 C   0  0
    6.6150   -0.6740    0.7700 C   0  0
    6.6490   -2.0550    0.4920 C   0  0
    7.8070    0.0040    1.0920 C   0  0
    7.8670   -2.7520    0.5370 C   0  0
    9.0240   -0.6950    1.1370 C   0  0
    9.0550   -2.0720    0.8610 C   0  0
   -5.3910   -0.1350   -2.6030 H   0  0
   -8.2700    1.6250    0.0740 H   0  0
   -6.6760    1.3830    1.9530 H   0  0
   -4.1500   -0.6930    2.2130 H   0  0
   -3.1970    0.7230    1.5940 H   0  0
   -4.5290    0.9490    2.7250 H   0  0
   -3.0610    1.4610   -0.0640 H   0  0
   -2.9980    1.3610   -1.7380 H   0  0
   -4.2480   -1.9430   -2.2600 H   0  0
   -2.4880   -1.9080   -2.2030 H   0  0
   -3.3690   -0.5880   -2.9670 H   0  0
   -2.3110   -2.2250    0.0510 H   0  0
   -3.8200   -1.8610    0.8810 H   0  0
   -2.4200   -0.8180    1.1060 H   0  0
   -0.6450   -0.7930   -1.9470 H   0  0
   -1.0610    0.5040    1.3730 H   0  0
   -0.8520    2.1170    0.7830 H   0  0
    1.5780    2.9490    0.5550 H   0  0
    1.2460   -1.3180    0.6820 H   0  0
    4.0800   -1.7560    0.7560 H   0  0
    5.7440   -2.5920    0.2420 H   0  0
    7.8010    1.0640    1.3090 H   0  0
    7.8930   -3.8110    0.3240 H   0  0
    9.9380   -0.1740    1.3850 H   0  0
    9.9920   -2.6090    0.8970 H   0  0
  1  2  1  0
  2  3  2  0
  2  4  1  0
  3  5  1  0
  4  6  2  0
  5  7  2  0
  5  8  1  0
  7  9  1  0
  8 10  1  0
  8 11  1  0
  8 12  1  0
 10 13  1  0
 13 14  1  0
 13 15  1  0
 13 16  1  0
 15 17  1  0
 15 18  1  0
 15 19  1  0
 16 20  1  0
 20 21  1  0
 20 22  2  0
 21 23  1  0
 22 24  1  0
 23 25  1  0
 24 26  1  0
 25 27  2  0
 26 28  2  0
 28 29  1  0
 29 30  2  0
 29 31  1  0
 30 32  1  0
 31 33  2  0
 32 34  2  0
  6  7  1  0
 23 24  2  0
 27 28  1  0
 33 34  1  0
  3 35  1  0
  4 36  1  0
  6 37  1  0
  9 38  1  0
  9 39  1  0
  9 40  1  0
 10 41  1  0
 10 42  1  0
 11 43  1  0
 11 44  1  0
 11 45  1  0
 12 46  1  0
 12 47  1  0
 12 48  1  0
 14 49  1  0
 16 50  1  0
 16 51  1  0
 21 52  1  0
 22 53  1  0
 26 54  1  0
 30 55  1  0
 31 56  1  0
 32 57  1  0
 33 58  1  0
 34 59  1  0
M  END
> <Name>
CHEMBL3126952

> <IC50 nM>
13

> <Molecule_ChEMBL_ID>
CHEMBL3126952

> <Smiles>
Cc1ccc(F)cc1C(C)(C)CC(O)(Cc1cc2cc(-c3ccccc3)nnc2[nH]1)C(F)(F)F

$$$$
CHEMBL3126935
  SciTegic08162514323D

 59 62  0  0  1  0            999 V2000
   -3.2420    2.5300    2.1360 F   0  0
   -1.9850    2.8790    1.8750 C   0  0
   -1.6410    3.3780    0.6070 C   0  0
   -0.9990    2.7490    2.8690 C   0  0
   -0.3120    3.7470    0.3290 C   0  0
    0.3290    3.1170    2.5940 C   0  0
    0.6760    3.6160    1.3260 C   0  0
    0.0330    4.2740   -1.0200 C   0  0
    2.0860    4.0010    1.0520 C   0  0
    0.9750    3.1160   -1.3540 C   0  0
    0.7580    5.6170   -0.9310 C   0  0
   -1.1900    4.3230   -1.9350 C   0  0
    0.3260    1.7480   -1.1420 C   0  0  1  0  0  0
   -1.0630    1.8830   -1.3390 O   0  0
    0.8770    0.8300   -2.2340 C   0  0
    0.5590    1.1970    0.2650 C   0  0
    0.7240    1.4320   -3.4570 F   0  0
    0.1930   -0.3580   -2.2210 F   0  0
    2.2080    0.5940   -2.0040 F   0  0
    0.5790   -0.3170    0.2640 C   0  0
    1.7480   -1.0820    0.2650 N   0  0
   -0.4960   -1.2130    0.2630 C   0  0
    1.3330   -2.3980    0.2640 C   0  0
   -0.0550   -2.5050    0.2630 C   0  0
    2.0450   -3.6180    0.2630 C   0  0
   -0.7300   -3.7150    0.2620 N   0  0
    1.4310   -4.8580    0.2620 N   0  0
    0.0340   -4.8850    0.2620 C   0  0
   -0.6460   -6.1690    0.2620 C   0  0
   -2.0530   -6.2210    0.2620 C   0  0
    0.1010   -7.3620    0.2620 C   0  0
   -2.7100   -7.4640    0.2620 C   0  0
   -0.5590   -8.6040    0.2620 C   0  0
   -1.9630   -8.6550    0.2620 C   0  0
   -2.4010    3.4770   -0.1560 H   0  0
   -1.2580    2.3660    3.8450 H   0  0
    1.0810    3.0140    3.3620 H   0  0
    2.4680    4.5970    1.8810 H   0  0
    2.6790    3.1050    0.8680 H   0  0
    2.1270    4.6170    0.1530 H   0  0
    1.9010    3.1960   -0.7860 H   0  0
    1.3530    3.2090   -2.3720 H   0  0
    0.2270    6.4020   -1.4690 H   0  0
    1.7600    5.5430   -1.3530 H   0  0
    0.8570    5.9340    0.1070 H   0  0
   -1.7110    5.2780   -1.8670 H   0  0
   -1.8990    3.5370   -1.6740 H   0  0
   -0.8990    4.1760   -2.9750 H   0  0
   -1.5020    1.3590   -0.6500 H   0  0
   -0.2120    1.5490    0.9500 H   0  0
    1.4960    1.5720    0.6760 H   0  0
    2.6830   -0.7470    0.2660 H   0  0
   -1.5380   -0.9190    0.2620 H   0  0
    3.1250   -3.5860    0.2630 H   0  0
   -2.6420   -5.3140    0.2620 H   0  0
    1.1810   -7.3400    0.2620 H   0  0
   -3.7890   -7.5040    0.2620 H   0  0
    0.0140   -9.5190    0.2620 H   0  0
   -2.4690   -9.6090    0.2620 H   0  0
  1  2  1  0
  2  3  2  0
  2  4  1  0
  3  5  1  0
  4  6  2  0
  5  7  2  0
  5  8  1  0
  7  9  1  0
  8 10  1  0
  8 11  1  0
  8 12  1  0
 10 13  1  0
 13 14  1  0
 13 15  1  0
 13 16  1  0
 15 17  1  0
 15 18  1  0
 15 19  1  0
 16 20  1  0
 20 21  1  0
 20 22  2  0
 21 23  1  0
 22 24  1  0
 23 25  1  0
 24 26  1  0
 25 27  2  0
 26 28  2  0
 28 29  1  0
 29 30  2  0
 29 31  1  0
 30 32  1  0
 31 33  2  0
 32 34  2  0
  6  7  1  0
 23 24  2  0
 27 28  1  0
 33 34  1  0
  3 35  1  0
  4 36  1  0
  6 37  1  0
  9 38  1  0
  9 39  1  0
  9 40  1  0
 10 41  1  0
 10 42  1  0
 11 43  1  0
 11 44  1  0
 11 45  1  0
 12 46  1  0
 12 47  1  0
 12 48  1  0
 14 49  1  0
 16 50  1  0
 16 51  1  0
 21 52  1  0
 22 53  1  0
 25 54  1  0
 30 55  1  0
 31 56  1  0
 32 57  1  0
 33 58  1  0
 34 59  1  0
M  END
> <Name>
CHEMBL3126935

> <IC50 nM>
8

> <Molecule_ChEMBL_ID>
CHEMBL3126935

> <Smiles>
Cc1ccc(F)cc1C(C)(C)CC(O)(Cc1cc2nc(-c3ccccc3)ncc2[nH]1)C(F)(F)F

$$$$
CHEMBL517933
  SciTegic08162514323D

 59 61  0  0  1  0            999 V2000
   -3.3650   -5.0630    0.5020 F   0  0
   -2.1480   -5.5590    0.2850 C   0  0
   -1.0230   -4.7090    0.2340 C   0  0
   -1.9900   -6.9430    0.1070 C   0  0
    0.2560   -5.2560    0.0020 C   0  0
   -1.1870   -3.2340    0.4240 C   0  0
   -0.7150   -7.4850   -0.1230 C   0  0
    1.3300   -4.4710   -0.0490 F   0  0
    0.4060   -6.6410   -0.1780 C   0  0
   -1.5160   -2.7770    1.4940 O   0  0
   -0.9590   -2.4060   -0.6390 N   0  0
   -1.0000   -0.9430   -0.4960 C   0  0
   -0.6660   -2.9860   -1.9570 C   0  0
   -2.4410   -0.4380   -0.4340 C   0  0  2  0  0  0
   -1.8480   -3.8110   -2.4670 C   0  0
   -3.0140   -0.8850    0.7750 O   0  0
   -3.2990   -0.9570   -1.5880 C   0  0
   -2.5350    1.0880   -0.4750 C   0  0
   -1.3400   -4.9430   -3.1350 O   0  0
   -4.4200   -0.1780   -1.7130 F   0  0
   -3.6700   -2.2540   -1.3360 F   0  0
   -2.5780   -0.9080   -2.7520 F   0  0
   -1.5530    1.6990    0.4320 N   0  0
   -0.6130    2.5510   -0.0740 C   0  0
   -0.5880    2.8010   -1.2580 O   0  0
    0.3630    3.1600    0.8200 C   0  0
    1.3910    4.0640    0.4570 C   0  0
    0.4510    2.9470    2.2110 C   0  0
    2.0450    4.3610    1.6090 N   0  0
    1.6660    4.5640   -0.9040 N   0  0
    1.4840    3.7010    2.6250 N   0  0
    3.1090    5.1950    1.7360 C   0  0
    4.2760    4.7580    2.3950 C   0  0
    3.0510    6.5020    1.2130 C   0  0
    5.3770    5.6230    2.5270 C   0  0
    4.1520    7.3650    1.3480 C   0  0
    5.3150    6.9260    2.0040 C   0  0
    6.3580    7.7440    2.1290 F   0  0
   -2.8520   -7.5980    0.1480 H   0  0
   -0.5980   -8.5490   -0.2620 H   0  0
    1.3850   -7.0610   -0.3550 H   0  0
   -0.4510   -0.6540    0.4000 H   0  0
   -0.4690   -0.4880   -1.3320 H   0  0
    0.2310   -3.6020   -1.8850 H   0  0
   -0.4240   -2.1860   -2.6540 H   0  0
   -2.4410   -3.2340   -3.1780 H   0  0
   -2.4650   -4.1540   -1.6370 H   0  0
   -2.5040   -0.4820    1.4960 H   0  0
   -2.3690    1.4570   -1.4860 H   0  0
   -3.5350    1.4200   -0.1950 H   0  0
   -0.7440   -4.6230   -3.8300 H   0  0
   -1.5640    1.4980    1.4120 H   0  0
   -0.1600    2.3220    2.8500 H   0  0
    1.0900    4.2750   -1.6680 H   0  0
    2.4300    5.1890   -1.0620 H   0  0
    4.3440    3.7600    2.8030 H   0  0
    2.1640    6.8570    0.7050 H   0  0
    6.2680    5.2830    3.0310 H   0  0
    4.1020    8.3650    0.9430 H   0  0
  1  2  1  0
  2  3  2  0
  2  4  1  0
  3  5  1  0
  3  6  1  0
  4  7  2  0
  5  8  1  0
  5  9  2  0
  6 10  2  0
  6 11  1  0
 11 12  1  0
 11 13  1  0
 12 14  1  0
 13 15  1  0
 14 16  1  0
 14 17  1  0
 14 18  1  0
 15 19  1  0
 17 20  1  0
 17 21  1  0
 17 22  1  0
 18 23  1  0
 23 24  1  0
 24 25  2  0
 24 26  1  0
 26 27  2  0
 26 28  1  0
 27 29  1  0
 27 30  1  0
 28 31  2  0
 29 32  1  0
 32 33  2  0
 32 34  1  0
 33 35  1  0
 34 36  2  0
 35 37  2  0
 37 38  1  0
  7  9  1  0
 29 31  1  0
 36 37  1  0
  4 39  1  0
  7 40  1  0
  9 41  1  0
 12 42  1  0
 12 43  1  0
 13 44  1  0
 13 45  1  0
 15 46  1  0
 15 47  1  0
 16 48  1  0
 18 49  1  0
 18 50  1  0
 19 51  1  0
 23 52  1  0
 28 53  1  0
 30 54  1  0
 30 55  1  0
 33 56  1  0
 34 57  1  0
 35 58  1  0
 36 59  1  0
M  END
> <Name>
CHEMBL517933

> <IC50 nM>
15.85

> <Molecule_ChEMBL_ID>
CHEMBL517933

> <Smiles>
Nc1c(C(=O)NCC(O)(CN(CCO)C(=O)c2c(F)cccc2F)C(F)(F)F)cnn1-c1ccc(F)cc1

$$$$
CHEMBL4083216
  SciTegic08162514323D

 57 60  0  0  1  0            999 V2000
   -1.6080    2.7950    3.9360 S   0  0
   -2.3150    2.1350    5.0200 O   0  0
   -0.1860    2.9450    4.1900 O   0  0
   -1.9200    2.1950    2.5530 O   0  0
   -2.2190    4.2330    3.7740 O   0  0
   -1.5630    0.9610    2.2640 C   0  0
   -1.8500    0.4180    0.9980 C   0  0
   -0.8910    0.1780    3.2210 C   0  0
   -1.4670   -0.9000    0.6910 C   0  0
   -0.5080   -1.1390    2.9160 C   0  0
   -0.7970   -1.6780    1.6500 C   0  0
   -1.7740   -1.4710   -0.6480 C   0  0  1  0  0  0
   -0.6230   -2.1310   -1.1540 O   0  0
   -2.9440   -2.4530   -0.5880 C   0  0  1  0  0  0
    0.5140   -1.4300   -1.2560 C   0  0
   -4.1720   -1.7830   -0.1370 N   0  0
   -3.1700   -3.1820   -1.9120 C   0  0
    1.7620   -2.1050   -1.2850 C   0  0
    0.4650   -0.0120   -1.3340 C   0  0
   -5.1680   -2.5230    0.4320 C   0  0
    2.9590   -1.3500   -1.3940 C   0  0
    1.6620    0.7380   -1.4410 C   0  0
   -5.0430   -3.7190    0.5630 O   0  0
   -6.4200   -1.8220    0.8870 C   0  0
    2.8850    0.0270   -1.4670 C   0  0
    4.2110   -1.9390   -1.4300 C   0  0
   -7.2540   -2.7730    1.4140 F   0  0
   -7.0370   -1.2090   -0.1720 F   0  0
   -6.1250   -0.8910    1.8480 F   0  0
    4.1910    0.3830   -1.5570 N   0  0
    4.9410   -0.7730   -1.5330 N   0  0
    4.6890    1.6430   -1.6540 C   0  0
    5.7380    1.9220   -2.5530 C   0  0
    4.1580    2.6760   -0.8590 C   0  0
    6.2520    3.2250   -2.6520 C   0  0
    4.6740    3.9810   -0.9610 C   0  0
    5.7210    4.2560   -1.8570 C   0  0
    6.2090    5.4900   -1.9510 F   0  0
   -2.0940    4.7400    4.5900 H   0  0
   -2.3650    1.0180    0.2640 H   0  0
   -0.6680    0.5900    4.1950 H   0  0
    0.0060   -1.7360    3.6520 H   0  0
   -0.5000   -2.6910    1.4200 H   0  0
   -2.0330   -0.6640   -1.3340 H   0  0
   -2.7170   -3.2790    0.0860 H   0  0
   -4.2780   -0.7950   -0.2440 H   0  0
   -3.9850   -3.9000   -1.8220 H   0  0
   -3.4060   -2.4730   -2.7050 H   0  0
   -2.2760   -3.7280   -2.2090 H   0  0
    1.7890   -3.1840   -1.2270 H   0  0
   -0.4860    0.4980   -1.3100 H   0  0
    1.6390    1.8170   -1.5000 H   0  0
    4.5640   -2.9610   -1.3910 H   0  0
    6.1600    1.1430   -3.1720 H   0  0
    3.3520    2.4850   -0.1640 H   0  0
    7.0590    3.4340   -3.3420 H   0  0
    4.2620    4.7680   -0.3480 H   0  0
  1  2  2  0
  1  3  2  0
  1  4  1  0
  1  5  1  0
  4  6  1  0
  6  7  2  0
  6  8  1  0
  7  9  1  0
  8 10  2  0
  9 11  2  0
  9 12  1  0
 12 13  1  0
 12 14  1  0
 13 15  1  0
 14 16  1  0
 14 17  1  0
 15 18  2  0
 15 19  1  0
 16 20  1  0
 18 21  1  0
 19 22  2  0
 20 23  2  0
 20 24  1  0
 21 25  2  0
 21 26  1  0
 24 27  1  0
 24 28  1  0
 24 29  1  0
 25 30  1  0
 26 31  2  0
 30 32  1  0
 32 33  2  0
 32 34  1  0
 33 35  1  0
 34 36  2  0
 35 37  2  0
 37 38  1  0
 10 11  1  0
 22 25  1  0
 30 31  1  0
 36 37  1  0
  5 39  1  0
  7 40  1  0
  8 41  1  0
 10 42  1  0
 11 43  1  0
 12 44  1  0
 14 45  1  0
 16 46  1  0
 17 47  1  0
 17 48  1  0
 17 49  1  0
 18 50  1  0
 19 51  1  0
 22 52  1  0
 26 53  1  0
 33 54  1  0
 34 55  1  0
 35 56  1  0
 36 57  1  0
M  END
> <Name>
CHEMBL4083216

> <IC50 nM>
464

> <Molecule_ChEMBL_ID>
CHEMBL4083216

> <Smiles>
C[C@H](NC(=O)C(F)(F)F)[C@H](Oc1ccc2c(cnn2-c2ccc(F)cc2)c1)c1cccc(OS(=O)(=O)O)c1

$$$$
CHEMBL3666805
  SciTegic08162514323D

 78 83  0  0  1  0            999 V2000
   -2.4410   -1.7580   -9.7520 S   0  0
   -2.6910   -2.3570  -11.0510 O   0  0
   -3.3280   -2.1970   -8.6880 O   0  0
   -0.7230   -1.9240   -9.2870 C   0  0
   -2.3870    0.0240   -9.8420 C   0  0
   -0.2660   -0.5640   -8.7580 C   0  0  1  0  0  0
   -0.9140    0.4200   -9.7400 C   0  0
   -0.6720   -0.3320   -7.3560 N   0  0
   -0.0060    0.5980   -6.6100 C   0  0
    0.9080    1.2250   -7.0900 O   0  0
   -0.4280    0.8180   -5.1930 C   0  0
    0.5140    1.2270   -4.2330 C   0  0
   -1.7700    0.6210   -4.8220 C   0  0
    0.1150    1.4360   -2.8990 C   0  0
   -2.1700    0.8280   -3.4920 C   0  0
    1.0230    1.8300   -1.9670 N   0  0
   -1.2290    1.2360   -2.5290 C   0  0
    1.9240    2.8610   -2.1170 N   0  0
    1.2150    1.2890   -0.7360 C   0  0
    2.7480    3.0760   -1.0310 C   0  0
    2.2420    2.0650   -0.2320 C   0  0
    0.6210    0.2310   -0.0140 C   0  0
    2.7360    1.8010    1.0700 C   0  0
    1.1110   -0.0370    1.2890 C   0  0
    2.1660    0.7460    1.8300 C   0  0
    2.6250    0.4860    3.0620 O   0  0
    1.8180   -0.3050    3.9220 C   0  0  2  0  0  0
    0.5140    0.3500    4.1110 C   0  0
    2.5410   -0.5140    5.2520 C   0  0  1  0  0  0
   -0.6760   -0.4140    4.0610 C   0  0
    0.4490    1.7460    4.3460 C   0  0
    1.8220   -1.4760    6.1000 N   0  0
    4.0020   -0.9280    5.0720 C   0  0
   -1.9300    0.2150    4.2440 C   0  0
   -0.8030    2.3790    4.5180 C   0  0
    2.0680   -1.5040    7.4410 C   0  0
   -3.0630   -0.5170    4.2250 O   0  0
   -1.9940    1.6190    4.4490 C   0  0
    2.8690   -0.7420    7.9320 O   0  0
    1.3220   -2.4960    8.2930 C   0  0
   -4.2870    0.0610    4.6950 C   0  0
   -3.1920    2.2270    4.5820 O   0  0
    1.5680   -2.2690    9.6230 F   0  0
   -0.0270   -2.4120    8.0590 F   0  0
    1.8200   -3.8910    7.9120 C   0  0
   -4.3850    1.5220    4.2190 C   0  0
   -0.5860   -2.7300   -8.5820 H   0  0
   -0.1600   -2.1740  -10.1740 H   0  0
   -2.9420    0.4300   -9.0080 H   0  0
   -2.8480    0.3810  -10.7500 H   0  0
    0.8110   -0.4880   -8.8030 H   0  0
   -0.4470    0.3240  -10.7110 H   0  0
   -0.7950    1.4490   -9.4340 H   0  0
   -1.4260   -0.8480   -6.9490 H   0  0
    1.5450    1.3770   -4.5270 H   0  0
   -2.5000    0.3070   -5.5550 H   0  0
   -3.1990    0.6760   -3.2070 H   0  0
   -1.5550    1.3910   -1.5100 H   0  0
    3.5270    3.8170   -0.9040 H   0  0
   -0.1820   -0.3570   -0.4360 H   0  0
    3.5390    2.3910    1.4920 H   0  0
    0.6800   -0.8400    1.8690 H   0  0
    1.6700   -1.2770    3.4530 H   0  0
    2.6410    0.4320    5.7890 H   0  0
   -0.6310   -1.4800    3.8830 H   0  0
    1.3570    2.3300    4.3950 H   0  0
    1.1580   -2.1050    5.6950 H   0  0
    4.4940   -1.0370    6.0390 H   0  0
    4.0700   -1.8690    4.5270 H   0  0
    4.5490   -0.1740    4.5040 H   0  0
   -0.8480    3.4440    4.6950 H   0  0
   -5.1210   -0.5410    4.3360 H   0  0
   -4.2870    0.0200    5.7850 H   0  0
    1.3550   -4.6680    8.5200 H   0  0
    2.8980   -3.9630    8.0470 H   0  0
    1.5980   -4.1070    6.8670 H   0  0
   -5.2420    2.0330    4.6520 H   0  0
   -4.4860    1.5570    3.1350 H   0  0
  1  2  2  0
  1  3  2  0
  1  4  1  0
  1  5  1  0
  4  6  1  0
  5  7  1  0
  6  8  1  0
  8  9  1  0
  9 10  2  0
  9 11  1  0
 11 12  2  0
 11 13  1  0
 12 14  1  0
 13 15  2  0
 14 16  1  0
 14 17  2  0
 16 18  1  0
 16 19  1  0
 18 20  2  0
 19 21  1  0
 19 22  2  0
 21 23  2  0
 22 24  1  0
 23 25  1  0
 25 26  1  0
 27 26  1  0
 27 28  1  0
 27 29  1  0
 28 30  2  0
 28 31  1  0
 29 32  1  0
 29 33  1  0
 30 34  1  0
 31 35  2  0
 32 36  1  0
 34 37  1  0
 34 38  2  0
 36 39  2  0
 36 40  1  0
 37 41  1  0
 38 42  1  0
 40 43  1  0
 40 44  1  0
 40 45  1  0
 41 46  1  0
  6  7  1  0
 15 17  1  0
 20 21  1  0
 24 25  2  0
 35 38  1  0
 42 46  1  0
  4 47  1  0
  4 48  1  0
  5 49  1  0
  5 50  1  0
  6 51  1  0
  7 52  1  0
  7 53  1  0
  8 54  1  0
 12 55  1  0
 13 56  1  0
 15 57  1  0
 17 58  1  0
 20 59  1  0
 22 60  1  0
 23 61  1  0
 24 62  1  0
 27 63  1  0
 29 64  1  0
 30 65  1  0
 31 66  1  0
 32 67  1  0
 33 68  1  0
 33 69  1  0
 33 70  1  0
 35 71  1  0
 41 72  1  0
 41 73  1  0
 45 74  1  0
 45 75  1  0
 45 76  1  0
 46 77  1  0
 46 78  1  0
M  END
> <Name>
CHEMBL3666805

> <IC50 nM>
0.54

> <Molecule_ChEMBL_ID>
CHEMBL3666805

> <Smiles>
C[C@H](NC(=O)C(C)(F)F)[C@H](Oc1ccc2c(cnn2-c2cccc(C(=O)N[C@@H]3CCS(=O)(=O)C3)c2)c1)c1ccc2c(c1)OCCO2

$$$$
CHEMBL3666806
  SciTegic08162514323D

 76 81  0  0  1  0            999 V2000
    1.5550    1.3980   -7.4920 F   0  0
    2.8050    0.8360   -7.4630 C   0  0
    3.7460    1.8240   -7.3340 F   0  0
    2.9140   -0.1470   -6.3260 C   0  0
    3.0490    0.0640   -8.7600 C   0  0
    3.8320   -0.0880   -5.5410 O   0  0
    1.9550   -1.1090   -6.1970 N   0  0
    2.0470   -2.0760   -5.0960 C   0  0  2  0  0  0
    1.7870   -1.3990   -3.7500 C   0  0  2  0  0  0
    3.3810   -2.8240   -5.1330 C   0  0
    1.8400   -2.3690   -2.7130 O   0  0
    0.4800   -0.7270   -3.7250 C   0  0
    1.5760   -1.9690   -1.4610 C   0  0
   -0.7030   -1.4860   -3.5650 C   0  0
    0.4040    0.6820   -3.8630 C   0  0
    1.1050   -2.9040   -0.5040 C   0  0
    1.7700   -0.6070   -1.1000 C   0  0
   -1.9610   -0.8400   -3.5450 C   0  0
   -0.8500    1.3320   -3.8280 C   0  0
    0.8300   -2.4670    0.8180 C   0  0
    1.4900   -0.1760    0.2210 C   0  0
   -3.0940   -1.5650   -3.4220 O   0  0
   -2.0330    0.5760   -3.6540 C   0  0
    1.0230   -1.1390    1.1460 C   0  0
    0.3690   -3.3220    1.8050 C   0  0
   -4.3590   -0.9510   -3.6950 C   0  0
   -3.2310    1.1970   -3.5900 O   0  0
    0.6640   -1.1090    2.4530 N   0  0
    0.2870   -2.3850    2.8140 N   0  0
   -4.3750    0.4770   -3.1210 C   0  0
    0.6660   -0.0250    3.2750 C   0  0
   -0.4000    0.1840    4.1720 C   0  0
    1.7340    0.8910    3.2300 C   0  0
   -0.3960    1.3050    5.0230 C   0  0
    1.7360    2.0100    4.0800 C   0  0
   -1.5250    1.5250    5.9750 C   0  0
    0.6740    2.2170    4.9750 C   0  0
   -2.6450    1.1580    5.7050 O   0  0
   -1.2720    2.1540    7.1600 N   0  0
   -2.3750    2.3810    8.1110 C   0  0  2  0  0  0
   -2.0000    3.2730    9.2910 C   0  0
   -2.8830    1.1050    8.8110 C   0  0
   -2.9650    2.9220   10.2480 O   0  0
   -3.1210    1.5230   10.2640 C   0  0
    3.0250    0.7190   -9.6310 H   0  0
    2.2870   -0.7030   -8.8990 H   0  0
    4.0200   -0.4280   -8.7380 H   0  0
    1.1970   -1.1560   -6.8500 H   0  0
    1.3340   -2.8830   -5.2640 H   0  0
    2.5760   -0.6680   -3.5720 H   0  0
    3.5780   -3.2110   -6.1310 H   0  0
    4.1990   -2.1680   -4.8360 H   0  0
    3.3670   -3.6700   -4.4440 H   0  0
   -0.6500   -2.5610   -3.4590 H   0  0
    1.3050    1.2640   -3.9940 H   0  0
    0.9630   -3.9380   -0.7890 H   0  0
    2.1270    0.1020   -1.8300 H   0  0
   -0.9020    2.4040   -3.9340 H   0  0
    1.6330    0.8550    0.5100 H   0  0
    0.1330   -4.3790    1.8360 H   0  0
   -4.5000   -0.9240   -4.7760 H   0  0
   -5.1490   -1.5700   -3.2700 H   0  0
   -5.2750    1.0210   -3.4060 H   0  0
   -4.3360    0.4450   -2.0310 H   0  0
   -1.2270   -0.5140    4.2170 H   0  0
    2.5610    0.7480    2.5490 H   0  0
    2.5570    2.7110    4.0450 H   0  0
    0.6840    3.0820    5.6250 H   0  0
   -0.3420    2.4550    7.3750 H   0  0
   -3.1950    2.8340    7.5700 H   0  0
   -1.0210    3.0410    9.6880 H   0  0
   -2.0530    4.3300    9.0700 H   0  0
   -3.7950    0.7540    8.3460 H   0  0
   -2.1660    0.2950    8.7730 H   0  0
   -2.3670    1.1030   10.9140 H   0  0
   -4.1000    1.2600   10.6390 H   0  0
  1  2  1  0
  2  3  1  0
  2  4  1  0
  2  5  1  0
  4  6  2  0
  4  7  1  0
  7  8  1  0
  8  9  1  0
  8 10  1  0
  9 11  1  0
  9 12  1  0
 11 13  1  0
 12 14  2  0
 12 15  1  0
 13 16  2  0
 13 17  1  0
 14 18  1  0
 15 19  2  0
 16 20  1  0
 17 21  2  0
 18 22  1  0
 18 23  2  0
 20 24  2  0
 20 25  1  0
 22 26  1  0
 23 27  1  0
 24 28  1  0
 25 29  2  0
 26 30  1  0
 28 31  1  0
 31 32  2  0
 31 33  1  0
 32 34  1  0
 33 35  2  0
 34 36  1  0
 34 37  2  0
 36 38  2  0
 36 39  1  0
 40 39  1  0
 40 41  1  0
 40 42  1  0
 41 43  1  0
 42 44  1  0
 19 23  1  0
 21 24  1  0
 27 30  1  0
 28 29  1  0
 35 37  1  0
 43 44  1  0
  5 45  1  0
  5 46  1  0
  5 47  1  0
  7 48  1  0
  8 49  1  0
  9 50  1  0
 10 51  1  0
 10 52  1  0
 10 53  1  0
 14 54  1  0
 15 55  1  0
 16 56  1  0
 17 57  1  0
 19 58  1  0
 21 59  1  0
 25 60  1  0
 26 61  1  0
 26 62  1  0
 30 63  1  0
 30 64  1  0
 32 65  1  0
 33 66  1  0
 35 67  1  0
 37 68  1  0
 39 69  1  0
 40 70  1  0
 41 71  1  0
 41 72  1  0
 42 73  1  0
 42 74  1  0
 44 75  1  0
 44 76  1  0
M  END
> <Name>
CHEMBL3666806

> <IC50 nM>
0.66

> <Molecule_ChEMBL_ID>
CHEMBL3666806

> <Smiles>
C[C@H](NC(=O)C(C)(F)F)[C@H](Oc1ccc2c(cnn2-c2cccc(C(=O)N[C@H]3CCOC3)c2)c1)c1ccc2c(c1)OCCO2

$$$$
CHEMBL525923
  SciTegic08162514323D

 70 73  0  0  1  0            999 V2000
   -2.8110   -0.2620   -1.1660 F   0  0
   -2.6720    0.5040   -0.0250 C   0  0  2  0  0  0
   -4.1250    0.8830    0.4360 C   0  0  2  0  0  0
   -1.7680    1.7010   -0.4750 C   0  0  1  0  0  0
   -1.9810   -0.3970    1.0410 C   0  0  2  0  0  0
   -4.9120   -0.3830    0.7930 C   0  0
   -4.8240    1.7440   -0.6130 C   0  0
   -4.1190    1.7110    1.7290 C   0  0
   -1.7890    2.7500    0.4770 O   0  0
   -0.2930    1.3070   -0.7400 C   0  0
   -0.5470   -0.7480    0.6020 C   0  0  1  0  0  0
   -2.7890   -1.6860    1.2910 C   0  0
   -6.1600   -0.6110    0.3300 C   0  0
   -4.2340   -1.3810    1.7110 C   0  0
   -6.0690    1.4840   -1.0620 C   0  0
    0.3140    0.5080    0.4280 C   0  0  1  0  0  0
    0.2770   -1.5860    1.5780 C   0  0
   -6.8260    0.3320   -0.5740 C   0  0
    1.6910   -0.1410    0.1840 C   0  0  1  0  0  0
    0.4000    1.3420    1.7190 C   0  0
    1.7420   -1.2540    1.2520 C   0  0  1  0  0  0
   -7.9770    0.1620   -0.9080 O   0  0
    1.7050   -0.7540   -1.1000 O   0  0
    2.8540    0.8280    0.2110 C   0  0
    2.4610   -0.8500    2.5410 C   0  0
    2.9120   -1.2070   -1.4300 C   0  0
    2.6970    1.9960   -0.0600 O   0  0
    4.2110    0.2950    0.5840 C   0  0
    3.5700   -1.9410   -0.7280 O   0  0
    3.3930   -0.7950   -2.6410 N   0  0
    4.7460    1.0660    1.6350 O   0  0
    4.7170   -1.2500   -3.0840 C   0  0
    4.8090   -1.2680   -4.6090 C   0  0
    5.8260   -0.4220   -2.4360 C   0  0
   -2.1660    2.1330   -1.3930 H   0  0
   -1.9320    0.1540    1.9830 H   0  0
   -4.3110    2.6040   -1.0190 H   0  0
   -5.0860    1.6840    2.2330 H   0  0
   -3.8810    2.7540    1.5200 H   0  0
   -3.3710    1.3320    2.4260 H   0  0
   -2.3010    3.4790    0.0880 H   0  0
   -0.2640    0.7030   -1.6460 H   0  0
    0.3100    2.1910   -0.9550 H   0  0
   -0.5940   -1.2870   -0.3380 H   0  0
   -2.7950   -2.3070    0.3950 H   0  0
   -2.3160   -2.2830    2.0700 H   0  0
   -6.6860   -1.5080    0.6270 H   0  0
   -4.8030   -2.3130    1.7540 H   0  0
   -4.2360   -0.9770    2.7230 H   0  0
   -6.5080    2.1450   -1.7970 H   0  0
    0.0640   -2.6390    1.4610 H   0  0
    0.0190   -1.3220    2.5960 H   0  0
    0.8180    0.7680    2.5450 H   0  0
   -0.5880    1.6890    2.0180 H   0  0
    1.0310    2.2190    1.5680 H   0  0
    2.2440   -2.1210    0.8500 H   0  0
    3.4080   -1.3730    2.6580 H   0  0
    1.8440   -1.0740    3.4100 H   0  0
    2.6680    0.2210    2.5450 H   0  0
    4.8850    0.3670   -0.2690 H   0  0
    4.1210   -0.7340    0.9320 H   0  0
    2.8460   -0.1880   -3.2170 H   0  0
    5.6170    0.6950    1.8480 H   0  0
    4.7130   -2.2660   -2.6860 H   0  0
    4.0140   -1.8630   -5.0570 H   0  0
    5.7620   -1.6840   -4.9340 H   0  0
    4.7320   -0.2560   -5.0120 H   0  0
    6.0430   -0.7850   -1.4320 H   0  0
    6.7380   -0.4610   -3.0330 H   0  0
    5.5290    0.6250   -2.3520 H   0  0
  2  1  1  0
  2  3  1  0
  2  4  1  0
  2  5  1  0
  3  6  1  0
  3  7  1  0
  3  8  1  0
  4  9  1  0
  4 10  1  0
  5 11  1  0
  5 12  1  0
  6 13  2  0
  6 14  1  0
  7 15  2  0
 10 16  1  0
 11 17  1  0
 13 18  1  0
 16 19  1  0
 16 20  1  0
 17 21  1  0
 18 22  2  0
 19 23  1  0
 19 24  1  0
 21 25  1  0
 23 26  1  0
 24 27  2  0
 24 28  1  0
 26 29  2  0
 26 30  1  0
 28 31  1  0
 30 32  1  0
 32 33  1  0
 32 34  1  0
 11 16  1  0
 12 14  1  0
 15 18  1  0
 19 21  1  0
  4 35  1  0
  5 36  1  0
  7 37  1  0
  8 38  1  0
  8 39  1  0
  8 40  1  0
  9 41  1  0
 10 42  1  0
 10 43  1  0
 11 44  1  0
 12 45  1  0
 12 46  1  0
 13 47  1  0
 14 48  1  0
 14 49  1  0
 15 50  1  0
 17 51  1  0
 17 52  1  0
 20 53  1  0
 20 54  1  0
 20 55  1  0
 21 56  1  0
 25 57  1  0
 25 58  1  0
 25 59  1  0
 28 60  1  0
 28 61  1  0
 30 62  1  0
 31 63  1  0
 32 64  1  0
 33 65  1  0
 33 66  1  0
 33 67  1  0
 34 68  1  0
 34 69  1  0
 34 70  1  0
M  END
> <Name>
CHEMBL525923

> <IC50 nM>
21.5

> <Molecule_ChEMBL_ID>
CHEMBL525923

> <Smiles>
CC(C)NC(=O)O[C@]1(C(=O)CO)[C@@H](C)C[C@H]2[C@@H]3CCC4=CC(=O)C=C[C@]4(C)[C@@]3(F)[C@@H](O)C[C@@]21C

$$$$
CHEMBL1393
  SciTegic08162514323D

 61 65  0  0  1  0            999 V2000
    1.0510    2.4060   -0.5880 S   0  0
    1.7340    3.8520   -0.0470 C   0  0
    1.3630    1.3110    0.7480 C   0  0  1  0  0  0
    2.2480    3.9900    1.0370 O   0  0
    1.6660    4.9940   -1.0230 C   0  0
    0.4140    0.1020    0.7190 C   0  0  2  0  0  0
    2.8220    0.8520    0.6990 C   0  0
    0.6390   -0.7460   -0.5590 C   0  0  1  0  0  0
   -1.0550    0.5550    0.7730 C   0  0  1  0  0  0
    3.1100   -0.1250   -0.4260 C   0  0
    2.1100   -1.2540   -0.6820 C   0  0  2  0  0  0
   -0.4060   -1.8850   -0.6720 C   0  0
   -2.0190   -0.6370    0.7970 C   0  0  2  0  0  0
   -1.4750    1.3540    2.0060 C   0  0
    4.2380    0.0140   -1.1560 C   0  0
    2.3200   -1.8710   -2.0880 C   0  0
    2.3910   -2.3200    0.3870 C   0  0
   -1.8550   -1.3910   -0.5290 C   0  0
   -3.3630    0.0860    1.0570 C   0  0  2  0  0  0
   -1.7360   -1.5650    1.9900 C   0  0
   -2.9780    1.1000    2.1480 C   0  0
    4.6310   -0.9320   -2.2130 C   0  0
    3.7910   -2.1660   -2.4080 C   0  0
   -4.3360   -0.8380    1.5490 O   0  0
   -4.0020    0.7700   -0.1740 C   0  0
    5.6020   -0.7170   -2.9020 O   0  0
   -5.1600   -1.1390    0.5530 C   0  0
   -4.9220   -0.3320   -0.6860 C   0  0
   -6.0310   -1.9730    0.6150 O   0  0
    1.2090    1.8690    1.6740 H   0  0
    2.1250    5.8830   -0.5880 H   0  0
    2.1490    4.7130   -1.9590 H   0  0
    0.6250    5.2320   -1.2440 H   0  0
    0.6270   -0.5160    1.5940 H   0  0
    3.0740    0.3670    1.6450 H   0  0
    3.4730    1.7250    0.6290 H   0  0
    0.4550   -0.0860   -1.4060 H   0  0
   -1.2560    1.1600   -0.1000 H   0  0
   -0.2110   -2.6490    0.0800 H   0  0
   -0.3140   -2.3830   -1.6370 H   0  0
   -0.9530    1.0020    2.8870 H   0  0
   -1.2500    2.4040    1.8950 H   0  0
    4.8950    0.8500   -0.9610 H   0  0
    1.9340   -1.1900   -2.8480 H   0  0
    1.7500   -2.7950   -2.1930 H   0  0
    3.4440   -2.6040    0.4100 H   0  0
    1.8090   -3.2210    0.1970 H   0  0
    2.1250   -1.9530    1.3790 H   0  0
   -2.0920   -0.7440   -1.3750 H   0  0
   -2.5470   -2.2320   -0.5740 H   0  0
   -0.7260   -1.9770    1.9510 H   0  0
   -2.4370   -2.3990    2.0060 H   0  0
   -1.8400   -1.0230    2.9320 H   0  0
   -3.5430    2.0160    2.0700 H   0  0
   -3.1820    0.6930    3.1290 H   0  0
    4.1660   -2.9610   -1.7640 H   0  0
    3.8870   -2.5220   -3.4360 H   0  0
   -4.5980    1.6170    0.1270 H   0  0
   -3.2970    1.1110   -0.9180 H   0  0
   -5.8460    0.0610   -1.0860 H   0  0
   -4.4470   -0.9430   -1.4400 H   0  0
  1  2  1  0
  3  1  1  0
  2  4  2  0
  2  5  1  0
  6  3  1  0
  3  7  1  0
  6  8  1  0
  6  9  1  0
  7 10  1  0
  8 11  1  0
  8 12  1  0
  9 13  1  0
  9 14  1  0
 10 15  2  0
 11 16  1  0
 11 17  1  0
 12 18  1  0
 13 19  1  0
 13 20  1  0
 14 21  1  0
 15 22  1  0
 16 23  1  0
 19 24  1  0
 19 25  1  0
 22 26  2  0
 24 27  1  0
 25 28  1  0
 27 29  2  0
 10 11  1  0
 13 18  1  0
 19 21  1  0
 22 23  1  0
 27 28  1  0
  3 30  1  0
  5 31  1  0
  5 32  1  0
  5 33  1  0
  6 34  1  0
  7 35  1  0
  7 36  1  0
  8 37  1  0
  9 38  1  0
 12 39  1  0
 12 40  1  0
 14 41  1  0
 14 42  1  0
 15 43  1  0
 16 44  1  0
 16 45  1  0
 17 46  1  0
 17 47  1  0
 17 48  1  0
 18 49  1  0
 18 50  1  0
 20 51  1  0
 20 52  1  0
 20 53  1  0
 21 54  1  0
 21 55  1  0
 23 56  1  0
 23 57  1  0
 25 58  1  0
 25 59  1  0
 28 60  1  0
 28 61  1  0
M  END
> <Name>
CHEMBL1393

> <IC50 nM>
1400

> <Molecule_ChEMBL_ID>
CHEMBL1393

> <Smiles>
CC(=O)S[C@@H]1CC2=CC(=O)CC[C@]2(C)[C@H]2CC[C@@]3(C)[C@@H](CC[C@@]34CCC(=O)O4)[C@H]12

$$$$
CHEMBL4778549
  SciTegic08162514323D

 55 57  0  0  1  0            999 V2000
   -6.2790    3.4220   -0.6310 F   0  0
   -5.4940    3.5640    0.4840 C   0  0
   -5.8550    4.7030    1.1560 F   0  0
   -5.6600    2.4770    1.3030 F   0  0
   -4.0640    3.6580    0.0190 C   0  0
   -3.7870    3.6050   -1.1550 O   0  0
   -3.0800    3.8070    0.9550 N   0  0
   -1.6800    3.9000    0.5190 C   0  0  2  0  0  0
   -0.9900    2.5370    0.5940 C   0  0  2  0  0  0
   -0.9340    4.9820    1.3010 C   0  0
    0.3810    2.6820    0.2560 O   0  0
   -1.6250    1.5530   -0.3220 C   0  0
    1.1250    1.5960    0.2110 C   0  0
   -2.4430    0.5330    0.1970 C   0  0
   -1.4060    1.6390   -1.7090 C   0  0
    0.7790    0.4610    0.9710 C   0  0
    2.2750    1.5530   -0.5980 C   0  0
   -3.0430   -0.3970   -0.6680 C   0  0
   -2.0080    0.7070   -2.5740 C   0  0
    1.5350   -0.6760    0.9390 N   0  0
    3.0470    0.3790   -0.6230 C   0  0
   -2.8260   -0.3110   -2.0550 C   0  0
    2.6520   -0.7270    0.1580 C   0  0
   -3.4610   -1.2970   -2.9710 C   0  0
    3.4670   -1.9770    0.1370 C   0  0
    4.4630   -2.0590   -0.5430 O   0  0
    3.0650   -3.0350    0.9020 N   0  0
    3.7910   -4.1950    0.9020 C   0  0
    3.1350   -5.4420    0.9020 C   0  0
    5.1990   -4.1470    0.9020 C   0  0
    3.8830   -6.6310    0.9020 C   0  0
    5.9450   -5.3400    0.9020 C   0  0
    5.2870   -6.5800    0.9020 C   0  0
   -3.3110    3.8500    1.9280 H   0  0
   -1.6460    4.2950   -0.4960 H   0  0
   -1.0530    2.1740    1.6190 H   0  0
   -0.8690    4.7190    2.3570 H   0  0
    0.0740    5.1170    0.9060 H   0  0
   -1.4530    5.9380    1.2260 H   0  0
   -2.6150    0.4630    1.2620 H   0  0
   -0.7790    2.4180   -2.1150 H   0  0
   -0.1030    0.4860    1.5940 H   0  0
    2.5650    2.4080   -1.1900 H   0  0
   -3.6720   -1.1760   -0.2640 H   0  0
   -1.8360    0.7790   -3.6390 H   0  0
    3.9340    0.3300   -1.2390 H   0  0
   -3.2280   -1.1430   -4.0260 H   0  0
   -4.5430   -1.2520   -2.8580 H   0  0
   -3.1390   -2.3030   -2.7010 H   0  0
    2.2400   -2.9630    1.4630 H   0  0
    2.0550   -5.5000    0.9020 H   0  0
    5.7230   -3.2010    0.9020 H   0  0
    3.3770   -7.5860    0.9020 H   0  0
    7.0240   -5.3010    0.9020 H   0  0
    5.8610   -7.4960    0.9020 H   0  0
  1  2  1  0
  2  3  1  0
  2  4  1  0
  2  5  1  0
  5  6  2  0
  5  7  1  0
  7  8  1  0
  8  9  1  0
  8 10  1  0
  9 11  1  0
  9 12  1  0
 11 13  1  0
 12 14  2  0
 12 15  1  0
 13 16  2  0
 13 17  1  0
 14 18  1  0
 15 19  2  0
 16 20  1  0
 17 21  2  0
 18 22  2  0
 20 23  2  0
 22 24  1  0
 23 25  1  0
 25 26  2  0
 25 27  1  0
 27 28  1  0
 28 29  2  0
 28 30  1  0
 29 31  1  0
 30 32  2  0
 31 33  2  0
 19 22  1  0
 21 23  1  0
 32 33  1  0
  7 34  1  0
  8 35  1  0
  9 36  1  0
 10 37  1  0
 10 38  1  0
 10 39  1  0
 14 40  1  0
 15 41  1  0
 16 42  1  0
 17 43  1  0
 18 44  1  0
 19 45  1  0
 21 46  1  0
 24 47  1  0
 24 48  1  0
 24 49  1  0
 27 50  1  0
 29 51  1  0
 30 52  1  0
 31 53  1  0
 32 54  1  0
 33 55  1  0
M  END
> <Name>
CHEMBL4778549

> <IC50 nM>
26

> <Molecule_ChEMBL_ID>
CHEMBL4778549

> <Smiles>
Cc1ccc([C@@H](Oc2ccc(C(=O)Nc3ccccc3)nc2)[C@H](C)NC(=O)C(F)(F)F)cc1

$$$$
CHEMBL1084770
  SciTegic08162514323D

 41 42  0  0  0  0            999 V2000
    0.1800    1.9780    0.1250 O   0  0
   -1.1290    2.1310    0.0720 C   0  0
    0.6640    0.7320    0.2280 C   0  0
   -1.9770    1.1430    0.6050 C   0  0
   -1.6820    3.2810   -0.5160 C   0  0
    0.3830   -0.3440   -0.6170 C   0  0
    1.5430    0.2640    1.1990 C   0  0
   -3.3710    1.3010    0.5510 C   0  0
   -3.0760    3.4470   -0.5740 C   0  0
    1.0590   -1.4510   -0.1990 N   0  0
   -0.5230   -0.3460   -1.8300 C   0  0
    1.7660   -1.0840    0.9060 C   0  0
    2.1410    1.0550    2.3440 C   0  0
   -3.9160    2.4550   -0.0390 C   0  0
    1.0330   -2.7870   -0.8150 C   0  0
    0.2850   -0.3870   -3.1270 C   0  0
    3.6450    0.8070    2.4630 C   0  0
   -5.3440    2.6210   -0.0980 C   0  0
    1.1660   -3.8810    0.2440 C   0  0
   -6.4940    2.7540   -0.1450 N   0  0
    1.0140   -5.1310   -0.3930 O   0  0
   -1.5590    0.2540    1.0590 H   0  0
   -1.0370    4.0450   -0.9260 H   0  0
   -4.0100    0.5330    0.9650 H   0  0
   -3.4860    4.3380   -1.0290 H   0  0
   -1.1660    0.5330   -1.8050 H   0  0
   -1.2030   -1.1970   -1.7740 H   0  0
    2.4000   -1.7700    1.4530 H   0  0
    1.9370    2.1150    2.1970 H   0  0
    1.6330    0.7930    3.2710 H   0  0
    0.0880   -2.9280   -1.3380 H   0  0
    1.8360   -2.8630   -1.5490 H   0  0
   -0.3570   -0.3970   -4.0060 H   0  0
    0.9120   -1.2790   -3.1620 H   0  0
    0.9390    0.4820   -3.1990 H   0  0
    4.0740    1.4160    3.2580 H   0  0
    3.8460   -0.2440    2.6720 H   0  0
    4.1540    1.0640    1.5330 H   0  0
    0.3830   -3.7870    0.9960 H   0  0
    2.1520   -3.8540    0.7070 H   0  0
    1.1000   -5.8130    0.2930 H   0  0
  1  2  1  0
  1  3  1  0
  2  4  2  0
  2  5  1  0
  3  6  2  0
  3  7  1  0
  4  8  1  0
  5  9  2  0
  6 10  1  0
  6 11  1  0
  7 12  2  0
  7 13  1  0
  8 14  2  0
 10 15  1  0
 11 16  1  0
 13 17  1  0
 14 18  1  0
 15 19  1  0
 18 20  3  0
 19 21  1  0
  9 14  1  0
 10 12  1  0
  4 22  1  0
  5 23  1  0
  8 24  1  0
  9 25  1  0
 11 26  1  0
 11 27  1  0
 12 28  1  0
 13 29  1  0
 13 30  1  0
 15 31  1  0
 15 32  1  0
 16 33  1  0
 16 34  1  0
 16 35  1  0
 17 36  1  0
 17 37  1  0
 17 38  1  0
 19 39  1  0
 19 40  1  0
 21 41  1  0
M  END
> <Name>
CHEMBL1084770

> <IC50 nM>
5000

> <Molecule_ChEMBL_ID>
CHEMBL1084770

> <Smiles>
CCc1cn(CCO)c(CC)c1Oc1ccc(C#N)cc1

$$$$
CHEMBL221491
  SciTegic08162514323D

 63 67  0  0  1  0            999 V2000
    1.0650    0.7600   -3.4840 F   0  0
    0.6370    1.6310   -2.5720 C   0  0
    0.0160    1.1840   -1.3910 C   0  0
    0.8110    3.0080   -2.7950 C   0  0
   -0.4340    2.1170   -0.4370 C   0  0
   -0.1700   -0.2830   -1.1480 C   0  0  2  0  0  0
    0.3610    3.9430   -1.8460 C   0  0
   -1.0210    1.7090    0.6860 F   0  0
   -0.2600    3.4940   -0.6680 C   0  0
   -1.1070   -0.5430    0.0350 C   0  0
    1.2110   -0.9730   -1.0470 C   0  0
    0.5240    5.2330   -2.0590 O   0  0
   -2.4360   -0.2580   -0.0250 C   0  0
   -0.5490   -1.1050    1.3440 C   0  0  2  0  0  0
    1.7850   -0.8910    0.3810 C   0  0  1  0  0  0
   -0.0040    6.1390   -1.1000 C   0  0
   -3.3030   -0.4490    1.1700 C   0  0
   -3.0660    0.3010   -1.2990 C   0  0
    0.8380   -1.7580    1.2230 C   0  0  1  0  0  0
   -1.5430   -2.0980    1.9770 C   0  0
    3.1620   -1.5450    0.6580 C   0  0  2  0  0  0
    1.7990    0.5550    0.9360 C   0  0
   -4.4430    0.2580    1.3030 C   0  0
   -2.8930   -1.4200    2.2620 C   0  0
   -4.5390    0.7310   -1.1720 C   0  0
    1.6060   -1.9220    2.5370 C   0  0
    4.2290   -0.6660    0.3440 O   0  0
    3.3790   -2.7890   -0.0900 C   0  0
    3.0940   -1.7990    2.1800 C   0  0
   -4.8950    1.1520    0.2290 C   0  0
    3.5700   -3.7910   -0.7030 C   0  0
   -5.5080    2.1660    0.4630 O   0  0
    3.8110   -5.0100   -1.4650 C   0  0
    1.2890    3.3520   -3.7010 H   0  0
   -0.6440   -0.6800   -2.0470 H   0  0
   -0.6050    4.2110    0.0640 H   0  0
    1.9200   -0.5470   -1.7580 H   0  0
    1.0980   -2.0160   -1.3520 H   0  0
   -0.4590   -0.2640    2.0310 H   0  0
    0.2700    7.1510   -1.3980 H   0  0
   -1.0680    5.9380   -0.9900 H   0  0
    0.4730    5.9360   -0.1410 H   0  0
   -2.5160    1.1860   -1.6090 H   0  0
   -2.9650   -0.4260   -2.1050 H   0  0
    0.7310   -2.7360    0.7680 H   0  0
   -1.6950   -2.9450    1.3110 H   0  0
   -1.1480   -2.5080    2.9080 H   0  0
    0.8160    0.8630    1.2930 H   0  0
    2.1090    1.2600    0.1640 H   0  0
    2.4980    0.6430    1.7680 H   0  0
   -5.0350    0.1740    2.2010 H   0  0
   -2.8300   -0.8750    3.2030 H   0  0
   -3.6700   -2.1780    2.3930 H   0  0
   -5.1840   -0.1020   -1.4490 H   0  0
   -4.7560    1.5330   -1.8770 H   0  0
    1.3360   -1.1450    3.2360 H   0  0
    1.3850   -2.8670    3.0100 H   0  0
    4.1370   -0.4280   -0.5920 H   0  0
    3.5100   -0.9650    2.7320 H   0  0
    3.6560   -2.6720    2.4880 H   0  0
    4.7910   -4.9710   -1.9430 H   0  0
    3.7810   -5.8750   -0.7990 H   0  0
    3.0490   -5.1290   -2.2340 H   0  0
  1  2  1  0
  2  3  2  0
  2  4  1  0
  3  5  1  0
  6  3  1  0
  4  7  2  0
  5  8  1  0
  5  9  2  0
  6 10  1  0
  6 11  1  0
  7 12  1  0
 10 13  2  0
 10 14  1  0
 11 15  1  0
 12 16  1  0
 13 17  1  0
 13 18  1  0
 14 19  1  0
 14 20  1  0
 15 21  1  0
 15 22  1  0
 17 23  2  0
 17 24  1  0
 18 25  1  0
 19 26  1  0
 21 27  1  0
 21 28  1  0
 21 29  1  0
 23 30  1  0
 28 31  3  0
 30 32  2  0
 31 33  1  0
  7  9  1  0
 15 19  1  0
 20 24  1  0
 25 30  1  0
 26 29  1  0
  4 34  1  0
  6 35  1  0
  9 36  1  0
 11 37  1  0
 11 38  1  0
 14 39  1  0
 16 40  1  0
 16 41  1  0
 16 42  1  0
 18 43  1  0
 18 44  1  0
 19 45  1  0
 20 46  1  0
 20 47  1  0
 22 48  1  0
 22 49  1  0
 22 50  1  0
 23 51  1  0
 24 52  1  0
 24 53  1  0
 25 54  1  0
 25 55  1  0
 26 56  1  0
 26 57  1  0
 27 58  1  0
 29 59  1  0
 29 60  1  0
 33 61  1  0
 33 62  1  0
 33 63  1  0
M  END
> <Name>
CHEMBL221491

> <IC50 nM>
0.7

> <Molecule_ChEMBL_ID>
CHEMBL221491

> <Smiles>
CC#C[C@]1(O)CC[C@H]2[C@@H]3CCC4=CC(=O)CCC4=C3[C@@H](c3c(F)cc(OC)cc3F)C[C@@]21C

$$$$
CHEMBL360804
  SciTegic08162514323D

 81 84  0  0  0  0            999 V2000
    0.9060    8.0270    4.4200 S   0  0
   -0.4320    8.4100    4.8380 O   0  0
    1.2340    6.6490    4.7360 O   0  0
    0.9780    8.1880    2.8100 N   0  0
    2.0900    9.1020    5.2230 C   0  0
    1.0410    7.0740    2.0120 C   0  0
    0.0190    6.0940    2.0350 C   0  0
    2.1480    6.9120    1.1560 C   0  0
    0.1210    4.9570    1.1970 C   0  0
   -1.1600    6.2580    2.9410 C   0  0
    2.2420    5.7830    0.3280 C   0  0
   -0.8500    3.9860    1.1930 N   0  0
    1.2320    4.8110    0.3480 C   0  0
   -1.6500    3.7230   -0.0120 C   0  0
   -1.1000    3.1910    2.4040 C   0  0
   -1.7290    2.2700   -0.3110 C   0  0
   -0.3090    1.9320    2.4040 C   0  0
   -0.6230    1.6070   -0.8750 C   0  0
   -2.9040    1.5550   -0.0270 C   0  0
   -0.9670    0.6890    2.4040 C   0  0
    1.0960    1.9820    2.4040 C   0  0
   -0.6970    0.2320   -1.1580 C   0  0
   -2.9770    0.1800   -0.3110 C   0  0
   -0.2210   -0.5020    2.4040 C   0  0
    1.8420    0.7910    2.4040 C   0  0
   -1.8730   -0.4840   -0.8770 C   0  0
    1.1840   -0.4510    2.4040 C   0  0
   -1.9410   -1.7730   -1.1430 O   0  0
   -1.3460   -2.2150   -2.2310 C   0  0
   -0.6970   -3.4630   -2.2290 C   0  0
   -1.3560   -1.4380   -3.4030 C   0  0
   -0.0610   -3.9320   -3.3910 C   0  0
   -0.7190   -1.9040   -4.5670 C   0  0
   -0.0720   -3.1500   -4.5610 C   0  0
    0.6230   -5.2520   -3.3830 C   0  0
   -0.3770   -6.4040   -3.2910 C   0  0
    0.3120   -7.7010   -3.3030 N   0  0
   -0.4240   -8.8520   -3.2440 C   0  0
   -1.6290   -8.8030   -3.1840 O   0  0
    0.2990  -10.1720   -3.2580 C   0  0
    0.7480  -10.6060   -1.8610 C   0  0
    1.8360   -9.7250   -1.3090 C   0  0
    2.9960   -9.9240   -1.5820 O   0  0
    1.4180   -8.7400   -0.5180 O   0  0
    0.9770    9.1000    2.3960 H   0  0
    2.6910    9.6990    4.5390 H   0  0
    2.7700    8.5040    5.8300 H   0  0
    1.5640    9.7870    5.8910 H   0  0
    2.9370    7.6500    1.1250 H   0  0
   -1.4320    7.3110    2.9960 H   0  0
   -1.9770    5.6270    2.5920 H   0  0
   -0.8930    5.9300    3.9470 H   0  0
    3.0940    5.6660   -0.3260 H   0  0
    1.3280    3.9490   -0.3010 H   0  0
   -1.2070    4.2460   -0.8600 H   0  0
   -2.6560    4.1170    0.1350 H   0  0
   -2.1600    2.9550    2.4630 H   0  0
   -0.8380    3.7830    3.2810 H   0  0
    0.2830    2.1520   -1.0940 H   0  0
   -3.7580    2.0570    0.4060 H   0  0
   -2.0470    0.6430    2.4040 H   0  0
    1.6070    2.9340    2.4040 H   0  0
    0.1520   -0.2720   -1.5920 H   0  0
   -3.8830   -0.3650   -0.0940 H   0  0
   -0.7270   -1.4570    2.4040 H   0  0
    2.9220    0.8300    2.4040 H   0  0
    1.7580   -1.3670    2.4040 H   0  0
   -0.6900   -4.0610   -1.3280 H   0  0
   -1.8520   -0.4770   -3.4100 H   0  0
   -0.7290   -1.3050   -5.4650 H   0  0
    0.4160   -3.5060   -5.4570 H   0  0
    1.3320   -5.2890   -2.5550 H   0  0
    1.2400   -5.3460   -4.2780 H   0  0
   -1.0860   -6.3650   -4.1190 H   0  0
   -0.9750   -6.3240   -2.3830 H   0  0
    1.3110   -7.7440   -3.3540 H   0  0
   -0.3690  -10.9550   -3.6170 H   0  0
    1.1500  -10.1230   -3.9380 H   0  0
    1.1150  -11.6270   -1.9690 H   0  0
   -0.0980  -10.6270   -1.1740 H   0  0
    0.4730   -8.6410   -0.3480 H   0  0
  1  2  2  0
  1  3  2  0
  1  4  1  0
  1  5  1  0
  4  6  1  0
  6  7  2  0
  6  8  1  0
  7  9  1  0
  7 10  1  0
  8 11  2  0
  9 12  1  0
  9 13  2  0
 12 14  1  0
 12 15  1  0
 14 16  1  0
 15 17  1  0
 16 18  2  0
 16 19  1  0
 17 20  2  0
 17 21  1  0
 18 22  1  0
 19 23  2  0
 20 24  1  0
 21 25  2  0
 22 26  2  0
 24 27  2  0
 26 28  1  0
 28 29  1  0
 29 30  2  0
 29 31  1  0
 30 32  1  0
 31 33  2  0
 32 34  2  0
 32 35  1  0
 35 36  1  0
 36 37  1  0
 37 38  1  0
 38 39  2  0
 38 40  1  0
 40 41  1  0
 41 42  1  0
 42 43  2  0
 42 44  1  0
 11 13  1  0
 23 26  1  0
 25 27  1  0
 33 34  1  0
  4 45  1  0
  5 46  1  0
  5 47  1  0
  5 48  1  0
  8 49  1  0
 10 50  1  0
 10 51  1  0
 10 52  1  0
 11 53  1  0
 13 54  1  0
 14 55  1  0
 14 56  1  0
 15 57  1  0
 15 58  1  0
 18 59  1  0
 19 60  1  0
 20 61  1  0
 21 62  1  0
 22 63  1  0
 23 64  1  0
 24 65  1  0
 25 66  1  0
 27 67  1  0
 30 68  1  0
 31 69  1  0
 33 70  1  0
 34 71  1  0
 35 72  1  0
 35 73  1  0
 36 74  1  0
 36 75  1  0
 37 76  1  0
 40 77  1  0
 40 78  1  0
 41 79  1  0
 41 80  1  0
 44 81  1  0
M  END
> <Name>
CHEMBL360804

> <IC50 nM>
11

> <Molecule_ChEMBL_ID>
CHEMBL360804

> <Smiles>
Cc1c(NS(C)(=O)=O)cccc1N(Cc1ccccc1)Cc1ccc(Oc2cccc(CCNC(=O)CCC(=O)O)c2)cc1

$$$$
CHEMBL4780682
  SciTegic08162514323D

 72 75  0  0  1  0            999 V2000
   -4.9450   -9.3970   -0.4780 F   0  0
   -3.6700   -8.9140   -0.6170 C   0  0
   -2.7720   -9.9040   -0.3120 F   0  0
   -3.4770   -8.5040   -1.9120 F   0  0
   -3.5200   -7.7560    0.3300 C   0  0
   -4.4360   -7.4080    1.0390 O   0  0
   -2.3220   -7.1000    0.3790 N   0  0
   -2.1580   -5.9650    1.2990 C   0  0  2  0  0  0
   -1.3460   -4.8440    0.6500 C   0  0  2  0  0  0
   -1.5700   -6.4240    2.6350 C   0  0
   -1.1520   -3.7950    1.5860 O   0  0
   -2.0240   -4.3090   -0.5610 C   0  0
   -0.4610   -2.7420    1.2010 C   0  0
   -1.4940   -4.5700   -1.8380 C   0  0
   -3.1940   -3.5410   -0.4320 C   0  0
   -0.5980   -1.5140    1.8770 C   0  0
    0.4220   -2.8280    0.1110 C   0  0
   -2.1330   -4.0650   -2.9820 C   0  0
   -3.8340   -3.0350   -1.5760 C   0  0
    0.1070   -0.4080    1.4960 N   0  0
    1.1440   -1.6880   -0.2750 C   0  0
   -3.3050   -3.2950   -2.8540 C   0  0
    0.9690   -0.4820    0.4380 C   0  0
   -3.9810   -2.7600   -4.0640 C   0  0
    1.7300    0.7340    0.0350 C   0  0
    2.5020    0.7050   -0.8950 O   0  0
    1.5450    1.8890    0.7400 N   0  0
    2.2910    3.1020    0.3560 C   0  0  1  0  0  0
    1.5780    4.3730    0.8670 C   0  0
    3.7460    3.0310    0.8560 C   0  0
    2.3810    5.5880    0.5900 N   0  0
    4.5140    4.3010    0.4570 C   0  0
    1.8100    6.6900    0.0080 C   0  0
    3.8160    5.5780    0.9590 C   0  0
    0.6410    6.6860   -0.2930 O   0  0
    2.6740    7.9020   -0.2480 C   0  0  2  0  0  0
    3.1700    8.3890    1.0000 O   0  0
    1.8960    9.0590   -0.8930 C   0  0
    2.4000    9.4040    1.3710 C   0  0
    1.3730    9.7790    0.3460 C   0  0
    2.5020    9.9940    2.4220 O   0  0
   -1.5670   -7.3870   -0.2070 H   0  0
   -3.1410   -5.6040    1.6020 H   0  0
   -0.3690   -5.2400    0.3750 H   0  0
   -2.1760   -7.2170    3.0700 H   0  0
   -0.5510   -6.7870    2.5000 H   0  0
   -1.5370   -5.5980    3.3460 H   0  0
   -0.5960   -5.1600   -1.9430 H   0  0
   -3.6060   -3.3360    0.5450 H   0  0
   -1.2740   -1.4380    2.7170 H   0  0
    0.5450   -3.7580   -0.4240 H   0  0
   -1.7210   -4.2680   -3.9590 H   0  0
   -4.7330   -2.4450   -1.4710 H   0  0
    1.8260   -1.7380   -1.1110 H   0  0
   -4.8790   -2.1780   -3.8560 H   0  0
   -4.2640   -3.5860   -4.7170 H   0  0
   -3.2890   -2.1210   -4.6130 H   0  0
    0.9060    1.9040    1.5100 H   0  0
    2.3090    3.1290   -0.7340 H   0  0
    0.5900    4.4630    0.4120 H   0  0
    1.4240    4.3160    1.9450 H   0  0
    4.2540    2.1560    0.4470 H   0  0
    3.7660    2.9300    1.9430 H   0  0
    4.6020    4.3400   -0.6310 H   0  0
    5.5310    4.2600    0.8440 H   0  0
    4.3200    6.4610    0.5610 H   0  0
    3.8910    5.6370    2.0450 H   0  0
    3.5140    7.6080   -0.8590 H   0  0
    1.1130    8.7420   -1.5660 H   0  0
    2.5720    9.7010   -1.4390 H   0  0
    1.3160   10.8500    0.2070 H   0  0
    0.4040    9.4080    0.6450 H   0  0
  1  2  1  0
  2  3  1  0
  2  4  1  0
  2  5  1  0
  5  6  2  0
  5  7  1  0
  7  8  1  0
  8  9  1  0
  8 10  1  0
  9 11  1  0
  9 12  1  0
 11 13  1  0
 12 14  2  0
 12 15  1  0
 13 16  2  0
 13 17  1  0
 14 18  1  0
 15 19  2  0
 16 20  1  0
 17 21  2  0
 18 22  2  0
 20 23  2  0
 22 24  1  0
 23 25  1  0
 25 26  2  0
 25 27  1  0
 28 27  1  0
 28 29  1  0
 28 30  1  0
 29 31  1  0
 30 32  1  0
 31 33  1  0
 31 34  1  0
 33 35  2  0
 36 33  1  0
 36 37  1  0
 36 38  1  0
 37 39  1  0
 38 40  1  0
 39 41  2  0
 19 22  1  0
 21 23  1  0
 32 34  1  0
 39 40  1  0
  7 42  1  0
  8 43  1  0
  9 44  1  0
 10 45  1  0
 10 46  1  0
 10 47  1  0
 14 48  1  0
 15 49  1  0
 16 50  1  0
 17 51  1  0
 18 52  1  0
 19 53  1  0
 21 54  1  0
 24 55  1  0
 24 56  1  0
 24 57  1  0
 27 58  1  0
 28 59  1  0
 29 60  1  0
 29 61  1  0
 30 62  1  0
 30 63  1  0
 32 64  1  0
 32 65  1  0
 34 66  1  0
 34 67  1  0
 36 68  1  0
 38 69  1  0
 38 70  1  0
 40 71  1  0
 40 72  1  0
M  END
> <Name>
CHEMBL4780682

> <IC50 nM>
90

> <Molecule_ChEMBL_ID>
CHEMBL4780682

> <Smiles>
Cc1ccc([C@@H](Oc2ccc(C(=O)N[C@@H]3CCCN(C(=O)[C@H]4CCC(=O)O4)C3)nc2)[C@H](C)NC(=O)C(F)(F)F)cc1

$$$$
CHEMBL1076438
  SciTegic08162514323D

 57 61  0  0  1  0            999 V2000
    2.4470    1.1700   -0.9040 O   0  0
    2.0000    0.4260    0.2270 C   0  0  1  0  0  0
    0.6780   -0.3240   -0.1880 C   0  0  1  0  0  0
    3.1410   -0.6020    0.6020 C   0  0
    1.7700    1.4980    1.3400 C   0  0
   -0.4630    0.7130   -0.4140 C   0  0  1  0  0  0
    0.8950   -1.2010   -1.4550 C   0  0
    0.2030   -1.2370    0.9610 C   0  0
    3.0100   -1.9240   -0.2300 C   0  0  1  0  0  0
    3.0490   -1.0020    2.0820 C   0  0
    4.5330    0.0510    0.4470 C   0  0
    0.5900    2.4710    1.0960 C   0  0
   -1.8710    0.2050   -0.5660 C   0  0
   -0.6410    1.5980    0.8730 C   0  0  1  0  0  0
   -0.2300    1.6390   -1.6170 C   0  0
    2.3320   -1.7400   -1.5980 C   0  0
    4.2640   -2.5590   -0.4140 O   0  0
   -2.4940   -0.8710   -1.2230 N   0  0
   -2.7440    1.0490    0.1090 C   0  0
   -2.0860    2.1820    0.8400 C   0  0
   -3.8320   -0.6880   -0.9750 C   0  0
   -3.9240    0.4430   -0.1970 C   0  0
   -4.9710   -1.4200   -1.3710 C   0  0
   -5.1860    0.9180    0.2360 C   0  0
   -6.2440   -0.9610   -0.9490 C   0  0
   -6.3520    0.2050   -0.1460 C   0  0
    2.1390    0.7010   -1.6950 H   0  0
    1.5740    0.9980    2.2890 H   0  0
    2.6800    2.0740    1.5060 H   0  0
    0.2010   -2.0430   -1.4380 H   0  0
    0.6500   -0.6530   -2.3650 H   0  0
   -0.8570   -1.4710    0.8830 H   0  0
    0.3690   -0.7600    1.9260 H   0  0
    0.7540   -2.1780    0.9570 H   0  0
    2.4060   -2.6470    0.3220 H   0  0
    3.8500   -1.6860    2.3690 H   0  0
    2.1000   -1.4940    2.2910 H   0  0
    3.1170   -0.1230    2.7250 H   0  0
    5.3050   -0.5760    0.8930 H   0  0
    4.7700    0.2110   -0.6050 H   0  0
    4.5630    1.0190    0.9450 H   0  0
    0.7810    3.1290    0.2500 H   0  0
    0.4470    3.1070    1.9710 H   0  0
   -0.6820    0.9390    1.7300 H   0  0
   -0.0450    1.0760   -2.5310 H   0  0
    0.6290    2.2850   -1.4430 H   0  0
   -1.1000    2.2750   -1.7850 H   0  0
    2.9240   -1.0570   -2.2090 H   0  0
    2.3070   -2.6820   -2.1470 H   0  0
    4.5610   -2.8620    0.4590 H   0  0
   -2.0640   -1.5960   -1.7480 H   0  0
   -2.1480    3.0920    0.2620 H   0  0
   -2.5060    2.3380    1.8240 H   0  0
   -4.8750   -2.3070   -1.9820 H   0  0
   -5.2620    1.8050    0.8500 H   0  0
   -7.1350   -1.5020   -1.2400 H   0  0
   -7.3240    0.5530    0.1740 H   0  0
  2  1  1  0
  2  3  1  0
  2  4  1  0
  2  5  1  0
  3  6  1  0
  3  7  1  0
  3  8  1  0
  4  9  1  0
  4 10  1  0
  4 11  1  0
  5 12  1  0
  6 13  1  0
  6 14  1  0
  6 15  1  0
  7 16  1  0
  9 17  1  0
 13 18  1  0
 13 19  2  0
 14 20  1  0
 18 21  1  0
 19 22  1  0
 21 23  1  0
 22 24  1  0
 23 25  2  0
 24 26  2  0
  9 16  1  0
 14 12  1  0
 19 20  1  0
 21 22  2  0
 25 26  1  0
  1 27  1  0
  5 28  1  0
  5 29  1  0
  7 30  1  0
  7 31  1  0
  8 32  1  0
  8 33  1  0
  8 34  1  0
  9 35  1  0
 10 36  1  0
 10 37  1  0
 10 38  1  0
 11 39  1  0
 11 40  1  0
 11 41  1  0
 12 42  1  0
 12 43  1  0
 14 44  1  0
 15 45  1  0
 15 46  1  0
 15 47  1  0
 16 48  1  0
 16 49  1  0
 17 50  1  0
 18 51  1  0
 20 52  1  0
 20 53  1  0
 23 54  1  0
 24 55  1  0
 25 56  1  0
 26 57  1  0
M  END
> <Name>
CHEMBL1076438

> <IC50 nM>
1000

> <Molecule_ChEMBL_ID>
CHEMBL1076438

> <Smiles>
CC1(C)[C@H](O)CC[C@]2(C)[C@@]3(C)c4[nH]c5ccccc5c4C[C@@H]3CC[C@@]12O

$$$$
CHEMBL3421874
  SciTegic08162514323D

 54 57  0  0  1  0            999 V2000
   -6.4810   -1.4320    0.6090 O   0  0
   -5.1760   -1.1920    0.4080 C   0  0
   -4.7290    0.1270    0.1720 C   0  0
   -4.2500   -2.2560    0.4300 C   0  0
   -3.3540    0.3940   -0.0470 C   0  0
   -2.8790   -2.0000    0.2130 C   0  0
   -2.4060   -0.6800   -0.0250 C   0  0
   -2.9400    1.8010   -0.2910 C   0  0
   -0.9400   -0.4530   -0.2690 C   0  0  1  0  0  0
   -1.5390    1.9370   -0.9020 C   0  0
   -0.5490    1.0430   -0.1500 C   0  0  2  0  0  0
   -0.0430   -1.2760    0.7150 C   0  0
   -0.6840   -0.9160   -1.7150 C   0  0
    0.9180    1.3120   -0.5640 C   0  0
    1.3550   -0.6680    1.0490 C   0  0  1  0  0  0
   -1.9710   -1.0530   -2.5270 C   0  0
    1.9260    0.2090   -0.1130 C   0  0  1  0  0  0
    1.2050    0.1440    2.2030 O   0  0
    2.3220   -1.7790    1.4880 C   0  0
    2.1580   -0.6510   -1.2150 O   0  0
    3.2560    0.8100    0.2150 C   0  0
    4.4260    0.2810   -0.3570 C   0  0
    3.3380    1.9020    1.0960 C   0  0
    5.6780    0.8460   -0.0510 C   0  0
    4.5880    2.4670    1.4020 C   0  0
    5.7580    1.9370    0.8300 C   0  0
   -7.1060   -0.6950    0.5920 H   0  0
   -5.4470    0.9330    0.1560 H   0  0
   -4.5880   -3.2640    0.6090 H   0  0
   -2.1910   -2.8320    0.2290 H   0  0
   -3.6620    2.3010   -0.9370 H   0  0
   -2.9650    2.3280    0.6640 H   0  0
   -1.2230    2.9780   -0.8570 H   0  0
   -1.5630    1.6660   -1.9590 H   0  0
   -0.6350    1.3240    0.9000 H   0  0
   -0.5720   -1.4670    1.6540 H   0  0
    0.1030   -2.2700    0.2890 H   0  0
    0.0190   -0.2500   -2.2150 H   0  0
   -0.1210   -1.8500   -1.7250 H   0  0
    0.9730    1.4670   -1.6440 H   0  0
    1.1870    2.2790   -0.1350 H   0  0
   -2.6130   -1.8260   -2.1050 H   0  0
   -2.5180   -0.1090   -2.5470 H   0  0
   -1.7500   -1.3300   -3.5570 H   0  0
    0.7930   -0.4060    2.8890 H   0  0
    2.0550   -2.1920    2.4610 H   0  0
    3.3420   -1.3990    1.5590 H   0  0
    2.3220   -2.6000    0.7700 H   0  0
    2.4100   -1.5160   -0.8530 H   0  0
    4.3710   -0.5590   -1.0350 H   0  0
    2.4430    2.3140    1.5390 H   0  0
    6.5760    0.4390   -0.4900 H   0  0
    4.6500    3.3070    2.0780 H   0  0
    6.7190    2.3710    1.0660 H   0  0
  1  2  1  0
  2  3  2  0
  2  4  1  0
  3  5  1  0
  4  6  2  0
  5  7  2  0
  5  8  1  0
  7  9  1  0
  8 10  1  0
  9 11  1  0
  9 12  1  0
  9 13  1  0
 11 14  1  0
 12 15  1  0
 13 16  1  0
 14 17  1  0
 15 18  1  0
 15 19  1  0
 17 20  1  0
 17 21  1  0
 21 22  2  0
 21 23  1  0
 22 24  1  0
 23 25  2  0
 24 26  2  0
  6  7  1  0
 10 11  1  0
 15 17  1  0
 25 26  1  0
  1 27  1  0
  3 28  1  0
  4 29  1  0
  6 30  1  0
  8 31  1  0
  8 32  1  0
 10 33  1  0
 10 34  1  0
 11 35  1  0
 12 36  1  0
 12 37  1  0
 13 38  1  0
 13 39  1  0
 14 40  1  0
 14 41  1  0
 16 42  1  0
 16 43  1  0
 16 44  1  0
 18 45  1  0
 19 46  1  0
 19 47  1  0
 19 48  1  0
 20 49  1  0
 22 50  1  0
 23 51  1  0
 24 52  1  0
 25 53  1  0
 26 54  1  0
M  END
> <Name>
CHEMBL3421874

> <IC50 nM>
5000

> <Molecule_ChEMBL_ID>
CHEMBL3421874

> <Smiles>
CC[C@@]12C[C@](C)(O)[C@](O)(c3ccccc3)C[C@H]1CCc1cc(O)ccc12

$$$$
CHEMBL3421872
  SciTegic08162514323D

 57 60  0  0  1  0            999 V2000
   -4.2620   -3.9470    1.1600 O   0  0
   -3.3980   -3.0980    0.5900 C   0  0
   -3.7910   -1.7680    0.3200 C   0  0
   -2.0980   -3.5270    0.2580 C   0  0
   -2.8830   -0.8590   -0.2810 C   0  0
   -1.1840   -2.6330   -0.3440 C   0  0
   -1.5610   -1.2890   -0.6230 C   0  0
   -3.3240    0.5390   -0.5530 C   0  0
   -0.6430   -0.2830   -1.2580 C   0  0  1  0  0  0
   -2.1990    1.6090   -0.5570 C   0  0
   -0.7850    1.0180   -0.4140 C   0  0  2  0  0  0
    0.8710   -0.6740   -1.3770 C   0  0
   -1.1460   -0.0510   -2.6950 C   0  0
    0.3480    2.0160   -0.6950 C   0  0
    1.7480   -0.1270   -0.2290 C   0  0  2  0  0  0
   -1.0740   -1.3130   -3.5570 C   0  0
    1.7380    1.4530   -0.2580 C   0  0  1  0  0  0
    3.0610   -0.6410   -0.3980 O   0  0
    1.2890   -0.7290    1.1090 C   0  0
    2.6620    1.9390   -1.2230 O   0  0
    2.1640    2.0310    1.0530 C   0  0
    1.8540   -2.1290    1.3520 C   0  0
    3.5290    2.0980    1.3830 C   0  0
    1.1970    2.5100    1.9570 C   0  0
    3.9280    2.6410    2.6170 C   0  0
    1.5980    3.0530    3.1900 C   0  0
    2.9630    3.1190    3.5200 C   0  0
   -5.1520   -3.6410    1.3810 H   0  0
   -4.7890   -1.4450    0.5740 H   0  0
   -1.7950   -4.5450    0.4650 H   0  0
   -0.2050   -3.0200   -0.5740 H   0  0
   -4.0880    0.8380    0.1680 H   0  0
   -3.8200    0.5430   -1.5230 H   0  0
   -2.2640    2.1860   -1.4790 H   0  0
   -2.3690    2.3260    0.2480 H   0  0
   -0.6930    0.7710    0.6450 H   0  0
    1.2660   -0.2310   -2.2930 H   0  0
    1.0290   -1.7380   -1.5430 H   0  0
   -0.6020    0.7680   -3.1660 H   0  0
   -2.1580    0.3550   -2.6880 H   0  0
    0.1330    2.9730   -0.2150 H   0  0
    0.3160    2.2280   -1.7660 H   0  0
   -1.4430   -1.1350   -4.5660 H   0  0
   -1.6720   -2.1110   -3.1190 H   0  0
   -0.0470   -1.6680   -3.6350 H   0  0
    2.9790   -1.4860   -0.8690 H   0  0
    1.5410   -0.0650    1.9380 H   0  0
    0.2010   -0.7340    1.1780 H   0  0
    3.5020    1.4770   -1.0740 H   0  0
    1.3570   -2.6040    2.1970 H   0  0
    1.7250   -2.7540    0.4690 H   0  0
    2.9200   -2.0820    1.5740 H   0  0
    4.2750    1.7320    0.6930 H   0  0
    0.1480    2.4610    1.7090 H   0  0
    4.9770    2.6910    2.8710 H   0  0
    0.8560    3.4180    3.8850 H   0  0
    3.2700    3.5350    4.4690 H   0  0
  1  2  1  0
  2  3  2  0
  2  4  1  0
  3  5  1  0
  4  6  2  0
  5  7  2  0
  5  8  1  0
  7  9  1  0
  8 10  1  0
  9 11  1  0
  9 12  1  0
  9 13  1  0
 11 14  1  0
 12 15  1  0
 13 16  1  0
 14 17  1  0
 15 18  1  0
 15 19  1  0
 17 20  1  0
 17 21  1  0
 19 22  1  0
 21 23  2  0
 21 24  1  0
 23 25  1  0
 24 26  2  0
 25 27  2  0
  6  7  1  0
 10 11  1  0
 15 17  1  0
 26 27  1  0
  1 28  1  0
  3 29  1  0
  4 30  1  0
  6 31  1  0
  8 32  1  0
  8 33  1  0
 10 34  1  0
 10 35  1  0
 11 36  1  0
 12 37  1  0
 12 38  1  0
 13 39  1  0
 13 40  1  0
 14 41  1  0
 14 42  1  0
 16 43  1  0
 16 44  1  0
 16 45  1  0
 18 46  1  0
 19 47  1  0
 19 48  1  0
 20 49  1  0
 22 50  1  0
 22 51  1  0
 22 52  1  0
 23 53  1  0
 24 54  1  0
 25 55  1  0
 26 56  1  0
 27 57  1  0
M  END
> <Name>
CHEMBL3421872

> <IC50 nM>
6

> <Molecule_ChEMBL_ID>
CHEMBL3421872

> <Smiles>
CC[C@@]12C[C@](O)(CC)[C@](O)(c3ccccc3)C[C@H]1CCc1cc(O)ccc12

$$$$
CHEMBL3582114
  SciTegic08162514323D

 47 50  0  0  0  0            999 V2000
    3.3590   -1.0040    2.2620 O   0  0
    2.4080   -1.1490    1.5270 C   0  0
    1.5800   -2.4240    1.5780 C   0  0
    2.0240   -0.0590    0.5350 C   0  0
    0.1370   -2.1840    1.3200 N   0  0
    2.1130   -3.3890    0.5160 C   0  0
    1.7210   -3.0780    2.9610 C   0  0
    0.5610   -0.0370    0.2360 C   0  0
    2.7990   -0.3130   -0.7620 C   0  0
    2.4530    1.2970    1.1210 C   0  0
   -0.2930   -1.0820    0.6560 C   0  0
   -0.0190    1.0350   -0.4820 C   0  0
   -1.6930   -1.0720    0.4100 C   0  0
   -1.4120    1.0680   -0.7480 C   0  0
   -2.6700   -1.9280    0.7210 O   0  0
   -2.2400    0.0080   -0.2890 C   0  0
   -1.6760    2.3140   -1.5060 C   0  0
   -3.9260   -1.4220    0.2190 C   0  0
   -3.5550   -0.1780   -0.4100 O   0  0
   -2.1150    2.3790   -2.8070 C   0  0
   -1.5210    3.5960   -1.0160 C   0  0
   -2.2250    3.7090   -3.1010 O   0  0
   -2.4320    1.2580   -3.7730 C   0  0
   -1.8710    4.4350   -2.0390 N   0  0
   -1.0640    4.0660    0.3480 C   0  0
   -0.5020   -2.8850    1.6470 H   0  0
    1.9060   -3.0370   -0.4940 H   0  0
    1.6560   -4.3730    0.6250 H   0  0
    3.1910   -3.5120    0.6130 H   0  0
    1.3750   -2.4200    3.7580 H   0  0
    2.7620   -3.3320    3.1620 H   0  0
    1.1370   -3.9980    3.0120 H   0  0
    2.4260   -1.1900   -1.2930 H   0  0
    3.8560   -0.4750   -0.5530 H   0  0
    2.7190    0.5410   -1.4320 H   0  0
    1.8790    1.5530    2.0120 H   0  0
    2.3110    2.0940    0.3930 H   0  0
    3.5060    1.2790    1.3990 H   0  0
    0.6290    1.8320   -0.8260 H   0  0
   -4.3380   -2.1040   -0.5120 H   0  0
   -4.6130   -1.2420    1.0330 H   0  0
   -2.7560    1.5940   -4.7600 H   0  0
   -3.2230    0.6330   -3.3590 H   0  0
   -1.5510    0.6330   -3.9080 H   0  0
   -1.7870    4.7790    0.7480 H   0  0
   -0.9180    3.2050    1.0000 H   0  0
   -0.1070    4.5800    0.2540 H   0  0
  1  2  2  0
  2  3  1  0
  2  4  1  0
  3  5  1  0
  3  6  1  0
  3  7  1  0
  4  8  1  0
  4  9  1  0
  4 10  1  0
  5 11  1  0
  8 12  2  0
 11 13  2  0
 12 14  1  0
 13 15  1  0
 13 16  1  0
 14 17  1  0
 15 18  1  0
 16 19  1  0
 17 20  2  0
 17 21  1  0
 20 22  1  0
 20 23  1  0
 21 24  2  0
 21 25  1  0
  8 11  1  0
 14 16  2  0
 18 19  1  0
 22 24  1  0
  5 26  1  0
  6 27  1  0
  6 28  1  0
  6 29  1  0
  7 30  1  0
  7 31  1  0
  7 32  1  0
  9 33  1  0
  9 34  1  0
  9 35  1  0
 10 36  1  0
 10 37  1  0
 10 38  1  0
 12 39  1  0
 18 40  1  0
 18 41  1  0
 23 42  1  0
 23 43  1  0
 23 44  1  0
 25 45  1  0
 25 46  1  0
 25 47  1  0
M  END
> <Name>
CHEMBL3582114

> <IC50 nM>
77

> <Molecule_ChEMBL_ID>
CHEMBL3582114

> <Smiles>
Cc1noc(C)c1-c1cc2c(c3c1OCO3)NC(C)(C)C(=O)C2(C)C

$$$$
CHEMBL2022654
  SciTegic08162514323D

 90 97  0  0  1  0            999 V2000
   -6.8890    0.3050   -1.2660 S   0  0
   -8.2910   -0.1680   -0.4490 C   0  0
   -5.6210   -0.2050   -0.1720 C   0  0
   -8.2380   -0.7910    0.7730 N   0  0
   -9.5410    0.0490   -0.9690 N   0  0
   -4.2810    0.1480   -0.7600 C   0  0
   -9.5490   -0.9750    1.0330 C   0  0
  -10.3300   -0.4730   -0.0080 C   0  0
   -9.9160    0.6840   -2.2420 C   0  0
   -4.1440    0.2990   -1.9530 O   0  0
   -3.1110    0.3100    0.1840 C   0  0  2  0  0  0
  -10.1480   -1.5760    2.1660 C   0  0
  -11.7440   -0.5510    0.0430 C   0  0
   -3.1270    1.6560    0.6310 O   0  0
   -1.7340   -0.0510   -0.4220 C   0  0  2  0  0  0
   -3.1740   -0.6170    1.4140 C   0  0
  -11.5630   -1.6620    2.2290 C   0  0
  -12.3580   -1.1500    1.1720 C   0  0
   -0.8590   -0.1370    0.8440 C   0  0  1  0  0  0
   -1.0980    0.9530   -1.4040 C   0  0
   -1.8850   -1.4340   -1.0800 C   0  0
   -1.7280   -0.9900    1.7700 C   0  0
    0.5510   -0.6580    0.5180 C   0  0  1  0  0  0
    0.3790    0.6150   -1.7190 C   0  0  1  0  0  0
    1.2110    0.3830   -0.4300 C   0  0  2  0  0  0
    1.4040   -0.9610    1.7750 C   0  0
    0.4430   -0.5160   -2.5700 O   0  0
    2.7230    0.0740   -0.6350 C   0  0  2  0  0  0
    2.5820    0.0000    1.9820 C   0  0
    3.4180    0.1760    0.7320 C   0  0
    3.3610    1.0210   -1.7010 C   0  0
    2.9120   -1.3770   -1.1050 C   0  0
    4.7480    0.4100    0.8200 C   0  0
    4.8850    1.0140   -1.6370 C   0  0
    5.4790    0.7320   -0.4200 C   0  0
    5.7580    1.2750   -2.6890 C   0  0
    6.7970    0.8440   -0.7170 N   0  0
    6.9460    1.1540   -2.0350 N   0  0
    7.9050    0.6560    0.2360 C   0  0
    8.9240   -0.3670   -0.3050 C   0  0
    8.5820    2.0020    0.5590 C   0  0
   10.1140   -0.5410    0.6520 C   0  0
    9.7720    1.8220    1.5140 C   0  0
   10.7830    0.8030    0.9730 C   0  0
   -5.6860   -1.2810   -0.0180 H   0  0
   -5.7460    0.2950    0.7870 H   0  0
   -9.0200    1.0330   -2.7540 H   0  0
  -10.4960   -0.0200   -2.8420 H   0  0
  -10.5470    1.5510   -2.0450 H   0  0
   -9.5450   -1.9670    2.9730 H   0  0
  -12.3500   -0.1620   -0.7620 H   0  0
   -3.9020    1.7580    1.2050 H   0  0
   -3.6840   -0.1640    2.2540 H   0  0
   -3.7210   -1.5240    1.1860 H   0  0
  -12.0370   -2.1190    3.0860 H   0  0
  -13.4340   -1.2190    1.2250 H   0  0
   -0.7600    0.8420    1.2930 H   0  0
   -1.6850    1.0180   -2.3220 H   0  0
   -1.1190    1.9530   -0.9710 H   0  0
   -2.4900   -2.1080   -0.4750 H   0  0
   -0.9100   -1.9000   -1.2210 H   0  0
   -2.3570   -1.3480   -2.0590 H   0  0
   -1.5100   -0.8070    2.8110 H   0  0
   -1.5570   -2.0410    1.5840 H   0  0
    0.4510   -1.6040   -0.0180 H   0  0
    0.8010    1.4430   -2.2870 H   0  0
    1.1780    1.3460    0.0840 H   0  0
    0.7910   -0.9830    2.6760 H   0  0
    1.8110   -1.9690    1.6820 H   0  0
    0.8360   -0.2210   -3.4060 H   0  0
    2.2050    0.9770    2.2910 H   0  0
    3.2030   -0.3590    2.8050 H   0  0
    3.0330    2.0470   -1.5250 H   0  0
    3.0310    0.7580   -2.7070 H   0  0
    3.9590   -1.6780   -1.0820 H   0  0
    2.5550   -1.5000   -2.1290 H   0  0
    2.3540   -2.0650   -0.4710 H   0  0
    5.2640    0.3710    1.7700 H   0  0
    5.5920    1.5140   -3.7320 H   0  0
    7.4770    0.2600    1.1580 H   0  0
    8.4460   -1.3320   -0.4650 H   0  0
    9.2990   -0.0430   -1.2770 H   0  0
    7.8650    2.6930    1.0020 H   0  0
    8.9380    2.4730   -0.3590 H   0  0
   10.8420   -1.2250    0.2190 H   0  0
    9.7680   -1.0020    1.5780 H   0  0
    9.4080    1.4880    2.4860 H   0  0
   10.2640    2.7810    1.6800 H   0  0
   11.5880    0.6560    1.6930 H   0  0
   11.2460    1.1990    0.0680 H   0  0
  1  2  1  0
  1  3  1  0
  2  4  2  0
  2  5  1  0
  3  6  1  0
  4  7  1  0
  5  8  1  0
  5  9  1  0
  6 10  2  0
  6 11  1  0
  7 12  1  0
  8 13  1  0
 11 14  1  0
 11 15  1  0
 11 16  1  0
 12 17  2  0
 13 18  2  0
 15 19  1  0
 15 20  1  0
 15 21  1  0
 16 22  1  0
 19 23  1  0
 20 24  1  0
 25 23  1  0
 23 26  1  0
 24 27  1  0
 25 28  1  0
 26 29  1  0
 28 30  1  0
 28 31  1  0
 28 32  1  0
 30 33  2  0
 31 34  1  0
 33 35  1  0
 34 36  1  0
 35 37  1  0
 36 38  2  0
 37 39  1  0
 39 40  1  0
 39 41  1  0
 40 42  1  0
 41 43  1  0
 42 44  1  0
  7  8  2  0
 17 18  1  0
 19 22  1  0
 24 25  1  0
 29 30  1  0
 34 35  2  0
 37 38  1  0
 43 44  1  0
  3 45  1  0
  3 46  1  0
  9 47  1  0
  9 48  1  0
  9 49  1  0
 12 50  1  0
 13 51  1  0
 14 52  1  0
 16 53  1  0
 16 54  1  0
 17 55  1  0
 18 56  1  0
 19 57  1  0
 20 58  1  0
 20 59  1  0
 21 60  1  0
 21 61  1  0
 21 62  1  0
 22 63  1  0
 22 64  1  0
 23 65  1  0
 24 66  1  0
 25 67  1  0
 26 68  1  0
 26 69  1  0
 27 70  1  0
 29 71  1  0
 29 72  1  0
 31 73  1  0
 31 74  1  0
 32 75  1  0
 32 76  1  0
 32 77  1  0
 33 78  1  0
 36 79  1  0
 39 80  1  0
 40 81  1  0
 40 82  1  0
 41 83  1  0
 41 84  1  0
 42 85  1  0
 42 86  1  0
 43 87  1  0
 43 88  1  0
 44 89  1  0
 44 90  1  0
M  END
> <Name>
CHEMBL2022654

> <IC50 nM>
6.6

> <Molecule_ChEMBL_ID>
CHEMBL2022654

> <Smiles>
Cn1c(SCC(=O)[C@@]2(O)CC[C@H]3[C@@H]4CCC5=Cc6c(cnn6C6CCCCC6)C[C@]5(C)[C@H]4[C@@H](O)C[C@@]32C)nc2ccccc21

$$$$
CHEMBL2022657
  SciTegic08162514323D

 77 83  0  0  1  0            999 V2000
    7.0590    0.8110   -1.0350 S   0  0
    8.4300   -0.1740   -1.0640 C   0  0
    5.7790   -0.3280   -0.6780 C   0  0
    8.2350   -1.5040   -0.8120 N   0  0
    9.7270    0.3120   -1.3300 C   0  0
    4.4630    0.3980   -0.6230 C   0  0
    9.2870   -2.3710   -0.8140 C   0  0
   10.8220   -0.5660   -1.3380 C   0  0
    4.4160    1.5860   -0.4040 O   0  0
    3.2010   -0.4000   -0.8480 C   0  0  2  0  0  0
   10.5980   -1.9280   -1.0760 C   0  0
    3.0080   -0.4690   -2.2520 O   0  0
    1.9380    0.1760   -0.1660 C   0  0  2  0  0  0
    3.2660   -1.8380   -0.2710 C   0  0
    1.0140   -1.0590   -0.2560 C   0  0  1  0  0  0
    1.2520    1.4260   -0.7640 C   0  0
    2.3180    0.4710    1.2970 C   0  0
    1.8870   -2.1640    0.3280 C   0  0
   -0.3380   -0.6660    0.3500 C   0  0  1  0  0  0
   -0.0660    1.1000   -1.5000 C   0  0  1  0  0  0
   -1.0900    0.2300   -0.6740 C   0  0  2  0  0  0
   -1.2110   -1.8500    0.7400 C   0  0
   -0.5940    2.2990   -2.0160 O   0  0
   -2.3500    0.8910   -0.0040 C   0  0  2  0  0  0
   -2.4510   -1.3320    1.4710 C   0  0
   -3.1600   -0.1860    0.7680 C   0  0
   -3.2130    1.6680   -1.0700 C   0  0
   -1.8850    1.8980    1.0550 C   0  0
   -4.5100   -0.1410    0.8650 C   0  0
   -4.6910    1.7990   -0.7380 C   0  0
   -5.2480    0.9120    0.1600 C   0  0
   -5.5680    2.7380   -1.2790 C   0  0
   -6.5530    1.2970    0.1680 N   0  0
   -6.7210    2.3570   -0.6640 N   0  0
   -7.5450    0.7190    0.8930 C   0  0
   -7.3380    0.4040    2.2500 C   0  0
   -8.7850    0.4320    0.2890 C   0  0
   -8.3650   -0.1930    3.0000 C   0  0
   -9.8110   -0.1660    1.0410 C   0  0
   -9.6020   -0.4790    2.3970 C   0  0
    5.7480   -1.0940   -1.4530 H   0  0
    5.9770   -0.8110    0.2790 H   0  0
    9.8790    1.3630   -1.5290 H   0  0
    9.1130   -3.4180   -0.6130 H   0  0
   11.8190   -0.2030   -1.5410 H   0  0
   11.4200   -2.6270   -1.0760 H   0  0
    3.7460   -0.9810   -2.6170 H   0  0
    4.0100   -1.9120    0.5080 H   0  0
    3.5430   -2.5660   -1.0190 H   0  0
    0.8280   -1.3460   -1.2810 H   0  0
    1.9450    1.9470   -1.4260 H   0  0
    1.0200    2.1370    0.0310 H   0  0
    2.8420   -0.3670    1.7580 H   0  0
    1.4300    0.6760    1.8930 H   0  0
    2.9710    1.3420    1.3570 H   0  0
    1.9080   -2.1170    1.4080 H   0  0
    1.5390   -3.1470    0.0490 H   0  0
   -0.1520   -0.0980    1.2620 H   0  0
    0.2090    0.5250   -2.3870 H   0  0
   -1.5080   -0.4450   -1.4220 H   0  0
   -1.4980   -2.4200   -0.1440 H   0  0
   -0.6660   -2.5350    1.3910 H   0  0
    0.0430    2.6370   -2.6640 H   0  0
   -2.1620   -0.9900    2.4650 H   0  0
   -3.1350   -2.1680    1.6270 H   0  0
   -3.1520    1.1680   -2.0370 H   0  0
   -2.8420    2.6820   -1.2130 H   0  0
   -2.7310    2.4610    1.4490 H   0  0
   -1.3830    1.3890    1.8770 H   0  0
   -1.1800    2.6110    0.6270 H   0  0
   -5.0450   -0.8690    1.4570 H   0  0
   -5.4240    3.5450   -1.9840 H   0  0
   -6.3930    0.6170    2.7330 H   0  0
   -8.9650    0.6640   -0.7500 H   0  0
   -8.2050   -0.4340    4.0410 H   0  0
  -10.7620   -0.3870    0.5780 H   0  0
  -10.3910   -0.9380    2.9730 H   0  0
  1  2  1  0
  1  3  1  0
  2  4  2  0
  2  5  1  0
  3  6  1  0
  4  7  1  0
  5  8  2  0
  6  9  2  0
  6 10  1  0
  7 11  2  0
 10 12  1  0
 10 13  1  0
 10 14  1  0
 13 15  1  0
 13 16  1  0
 13 17  1  0
 14 18  1  0
 15 19  1  0
 16 20  1  0
 21 19  1  0
 19 22  1  0
 20 23  1  0
 21 24  1  0
 22 25  1  0
 24 26  1  0
 24 27  1  0
 24 28  1  0
 26 29  2  0
 27 30  1  0
 29 31  1  0
 30 32  1  0
 31 33  1  0
 32 34  2  0
 33 35  1  0
 35 36  2  0
 35 37  1  0
 36 38  1  0
 37 39  2  0
 38 40  2  0
  8 11  1  0
 15 18  1  0
 20 21  1  0
 25 26  1  0
 30 31  2  0
 33 34  1  0
 39 40  1  0
  3 41  1  0
  3 42  1  0
  5 43  1  0
  7 44  1  0
  8 45  1  0
 11 46  1  0
 12 47  1  0
 14 48  1  0
 14 49  1  0
 15 50  1  0
 16 51  1  0
 16 52  1  0
 17 53  1  0
 17 54  1  0
 17 55  1  0
 18 56  1  0
 18 57  1  0
 19 58  1  0
 20 59  1  0
 21 60  1  0
 22 61  1  0
 22 62  1  0
 23 63  1  0
 25 64  1  0
 25 65  1  0
 27 66  1  0
 27 67  1  0
 28 68  1  0
 28 69  1  0
 28 70  1  0
 29 71  1  0
 32 72  1  0
 36 73  1  0
 37 74  1  0
 38 75  1  0
 39 76  1  0
 40 77  1  0
M  END
> <Name>
CHEMBL2022657

> <IC50 nM>
1.5

> <Molecule_ChEMBL_ID>
CHEMBL2022657

> <Smiles>
C[C@]12Cc3cnn(-c4ccccc4)c3C=C1CC[C@@H]1[C@@H]2[C@@H](O)C[C@@]2(C)[C@H]1CC[C@]2(O)C(=O)CSc1ccccn1

$$$$
CHEMBL2022659
  SciTegic08162514323D

 82 88  0  0  1  0            999 V2000
    6.8240    0.0720   -2.7300 S   0  0
    8.3600   -0.2170   -2.0880 C   0  0
    5.8200    0.1480   -1.3010 C   0  0
    9.4060   -0.3320   -2.9590 N   0  0
    8.4770   -0.3180   -0.7300 N   0  0
    4.3930    0.4040   -1.7030 C   0  0
   10.6510   -0.5660   -2.4430 C   0  0
    9.7150   -0.5510   -0.2050 C   0  0
    4.1210    0.8050   -2.8110 O   0  0
    3.3110    0.1430   -0.6840 C   0  0  2  0  0  0
   10.8360   -0.6800   -1.0510 C   0  0
    3.0020   -1.2400   -0.7620 O   0  0
    2.0370    1.0060   -0.8590 C   0  0  2  0  0  0
    3.7290    0.4730    0.7660 C   0  0
    1.3380    0.7850    0.4900 C   0  0  1  0  0  0
    1.0680    0.6170   -1.9920 C   0  0
    2.4830    2.4710   -0.9980 C   0  0
    2.4810    1.0080    1.4810 C   0  0
    0.0800    1.6560    0.6520 C   0  0  1  0  0  0
   -0.2910    1.3420   -1.8890 C   0  0  1  0  0  0
   -0.9240    1.2380   -0.4710 C   0  0  2  0  0  0
   -0.4800    1.4800    2.0900 C   0  0
   -0.1410    2.6950   -2.2750 O   0  0
   -2.3090    1.9360   -0.2810 C   0  0  2  0  0  0
   -1.9080    2.0270    2.2620 C   0  0
   -2.7190    1.4670    1.1210 C   0  0
   -3.3500    1.6020   -1.4060 C   0  0
   -2.1350    3.4650   -0.2730 C   0  0
   -3.6780    0.5370    1.3320 C   0  0
   -4.1740    0.3520   -1.1460 C   0  0
   -4.3220   -0.0760    0.1580 C   0  0
   -4.8340   -0.4080   -2.1110 C   0  0
   -5.1480   -1.1430    0.0120 N   0  0
   -5.4280   -1.3280   -1.3070 N   0  0
   -5.6600   -1.9840    1.1090 C   0  0
   -6.8400   -2.8520    0.6290 C   0  0
   -4.5330   -2.8540    1.7030 C   0  0
   -7.3560   -3.7720    1.7440 C   0  0
   -5.0570   -3.7730    2.8160 C   0  0
   -6.2310   -4.6350    2.3320 C   0  0
    5.8890   -0.7950   -0.7580 H   0  0
    6.1720    0.9490   -0.6520 H   0  0
   11.4960   -0.6620   -3.1090 H   0  0
    9.8380   -0.6350    0.8650 H   0  0
   11.8190   -0.8650   -0.6410 H   0  0
    3.7970   -1.7270   -0.4900 H   0  0
    4.4940    1.2340    0.7810 H   0  0
    4.1410   -0.3810    1.2870 H   0  0
    1.0310   -0.2500    0.5720 H   0  0
    0.8690   -0.4550   -1.9570 H   0  0
    1.5270    0.7990   -2.9630 H   0  0
    3.1370    2.7750   -0.1820 H   0  0
    1.6190    3.1370   -1.0020 H   0  0
    3.0240    2.6210   -1.9320 H   0  0
    2.5940    2.0610    1.6950 H   0  0
    2.2990    0.5060    2.4200 H   0  0
    0.3380    2.7090    0.5230 H   0  0
   -0.9490    0.8850   -2.6250 H   0  0
   -1.1030    0.1680   -0.3400 H   0  0
    0.1800    1.9590    2.8110 H   0  0
   -0.4880    0.4180    2.3480 H   0  0
    0.0880    2.6990   -3.2190 H   0  0
   -1.9140    3.1190    2.2380 H   0  0
   -2.3220    1.7300    3.2250 H   0  0
   -4.0780    2.4120   -1.4630 H   0  0
   -2.9000    1.5680   -2.3960 H   0  0
   -3.0620    3.9570    0.0160 H   0  0
   -1.3460    3.7580    0.4180 H   0  0
   -1.8610    3.8260   -1.2640 H   0  0
   -3.9470    0.2290    2.3320 H   0  0
   -4.8910   -0.3260   -3.1890 H   0  0
   -6.0230   -1.3140    1.8910 H   0  0
   -6.5310   -3.4650   -0.2210 H   0  0
   -7.6560   -2.2210    0.2730 H   0  0
   -3.7360   -2.2250    2.0980 H   0  0
   -4.0820   -3.4670    0.9200 H   0  0
   -8.1500   -4.4120    1.3590 H   0  0
   -7.8010   -3.1680    2.5350 H   0  0
   -5.3770   -3.1680    3.6640 H   0  0
   -4.2520   -4.4140    3.1780 H   0  0
   -6.6150   -5.2360    3.1560 H   0  0
   -5.8790   -5.3340    1.5740 H   0  0
  1  2  1  0
  1  3  1  0
  2  4  2  0
  2  5  1  0
  3  6  1  0
  4  7  1  0
  5  8  2  0
  6  9  2  0
  6 10  1  0
  7 11  2  0
 10 12  1  0
 10 13  1  0
 10 14  1  0
 13 15  1  0
 13 16  1  0
 13 17  1  0
 14 18  1  0
 15 19  1  0
 16 20  1  0
 21 19  1  0
 19 22  1  0
 20 23  1  0
 21 24  1  0
 22 25  1  0
 24 26  1  0
 24 27  1  0
 24 28  1  0
 26 29  2  0
 27 30  1  0
 29 31  1  0
 30 32  1  0
 31 33  1  0
 32 34  2  0
 33 35  1  0
 35 36  1  0
 35 37  1  0
 36 38  1  0
 37 39  1  0
 38 40  1  0
  8 11  1  0
 15 18  1  0
 20 21  1  0
 25 26  1  0
 30 31  2  0
 33 34  1  0
 39 40  1  0
  3 41  1  0
  3 42  1  0
  7 43  1  0
  8 44  1  0
 11 45  1  0
 12 46  1  0
 14 47  1  0
 14 48  1  0
 15 49  1  0
 16 50  1  0
 16 51  1  0
 17 52  1  0
 17 53  1  0
 17 54  1  0
 18 55  1  0
 18 56  1  0
 19 57  1  0
 20 58  1  0
 21 59  1  0
 22 60  1  0
 22 61  1  0
 23 62  1  0
 25 63  1  0
 25 64  1  0
 27 65  1  0
 27 66  1  0
 28 67  1  0
 28 68  1  0
 28 69  1  0
 29 70  1  0
 32 71  1  0
 35 72  1  0
 36 73  1  0
 36 74  1  0
 37 75  1  0
 37 76  1  0
 38 77  1  0
 38 78  1  0
 39 79  1  0
 39 80  1  0
 40 81  1  0
 40 82  1  0
M  END
> <Name>
CHEMBL2022659

> <IC50 nM>
7.3

> <Molecule_ChEMBL_ID>
CHEMBL2022659

> <Smiles>
C[C@]12Cc3cnn(C4CCCCC4)c3C=C1CC[C@@H]1[C@@H]2[C@@H](O)C[C@@]2(C)[C@H]1CC[C@]2(O)C(=O)CSc1ncccn1

$$$$
CHEMBL5284057
  SciTegic08162514323D

 52 55  0  0  0  0            999 V2000
    7.0000   -2.6020   -1.9790 Cl  0  0
    5.9340   -2.3770   -0.6500 C   0  0
    6.1210   -3.0660    0.5680 C   0  0
    4.8520   -1.4860   -0.7870 C   0  0
    5.2310   -2.8560    1.6370 C   0  0
    7.2520   -4.0180    0.7520 C   0  0
    3.9650   -1.2830    0.2850 C   0  0
    4.1500   -1.9650    1.5000 C   0  0
    2.6410   -0.1890    0.1030 S   0  0
    3.3200   -1.7750    2.5060 O   0  0
    2.8030    0.5180   -1.1540 O   0  0
    2.6130    0.6910    1.2580 O   0  0
    1.2190   -0.9630    0.0470 N   0  0
    3.5570   -2.4880    3.7090 C   0  0
    0.0820   -0.2640   -0.0920 C   0  0
   -1.1660   -0.9280   -0.1410 C   0  0
    0.1150    1.1450   -0.1890 C   0  0
   -2.3750   -0.1990   -0.2870 C   0  0
   -1.0820    1.8830   -0.3340 C   0  0
   -2.3500    1.2280   -0.3850 C   0  0
   -3.6580   -0.9510   -0.3380 C   0  0
   -3.5140    1.9430   -0.5230 N   0  0
   -4.8380   -0.0900    0.1230 C   0  0
   -3.5230    3.3160   -0.6000 C   0  0
   -4.8380    1.2600   -0.6040 C   0  0
   -2.6480    3.9630   -0.0720 O   0  0
   -4.5940    3.9880   -1.3200 C   0  0
   -5.0200    5.1930   -0.8500 O   0  0
   -5.2770    3.5640   -2.4630 C   0  0
   -6.0060    5.5450   -1.7290 C   0  0
   -6.1950    4.5800   -2.7290 C   0  0
    4.6920   -0.9530   -1.7130 H   0  0
    5.3730   -3.3790    2.5700 H   0  0
    7.2870   -4.4860    1.7360 H   0  0
    8.1950   -3.4960    0.5980 H   0  0
    7.1840   -4.8130    0.0080 H   0  0
    1.1880   -1.9590    0.1130 H   0  0
    3.4530   -3.5550    3.5000 H   0  0
    4.5180   -2.1680    4.1130 H   0  0
    2.7850   -2.2130    4.4280 H   0  0
   -1.2090   -2.0080   -0.0680 H   0  0
    1.0550    1.6800   -0.1560 H   0  0
   -0.9960    2.9570   -0.4040 H   0  0
   -3.8200   -1.2810   -1.3630 H   0  0
   -3.6050   -1.8500    0.2790 H   0  0
   -4.7790    0.0720    1.2010 H   0  0
   -5.7770   -0.6130   -0.0590 H   0  0
   -5.0900    1.1170   -1.6560 H   0  0
   -5.6170    1.8980   -0.1800 H   0  0
   -5.1270    2.6500   -3.0220 H   0  0
   -6.5680    6.4650   -1.6490 H   0  0
   -6.9100    4.6170   -3.5390 H   0  0
  1  2  1  0
  2  3  2  0
  2  4  1  0
  3  5  1  0
  3  6  1  0
  4  7  2  0
  5  8  2  0
  7  9  1  0
  8 10  1  0
  9 11  2  0
  9 12  2  0
  9 13  1  0
 10 14  1  0
 13 15  1  0
 15 16  2  0
 15 17  1  0
 16 18  1  0
 17 19  2  0
 18 20  2  0
 18 21  1  0
 20 22  1  0
 21 23  1  0
 22 24  1  0
 22 25  1  0
 24 26  2  0
 24 27  1  0
 27 28  1  0
 27 29  2  0
 28 30  1  0
 29 31  1  0
  7  8  1  0
 19 20  1  0
 23 25  1  0
 30 31  2  0
  4 32  1  0
  5 33  1  0
  6 34  1  0
  6 35  1  0
  6 36  1  0
 13 37  1  0
 14 38  1  0
 14 39  1  0
 14 40  1  0
 16 41  1  0
 17 42  1  0
 19 43  1  0
 21 44  1  0
 21 45  1  0
 23 46  1  0
 23 47  1  0
 25 48  1  0
 25 49  1  0
 29 50  1  0
 30 51  1  0
 31 52  1  0
M  END
> <Name>
CHEMBL5284057

> <IC50 nM>
5020

> <Molecule_ChEMBL_ID>
CHEMBL5284057

> <Smiles>
COc1cc(C)c(Cl)cc1S(=O)(=O)Nc1ccc2c(c1)CCCN2C(=O)c1ccco1

$$$$
CHEMBL5278403
  SciTegic08162514323D

 61 64  0  0  0  0            999 V2000
    6.1020   -5.8220   -2.4490 Cl  0  0
    5.2720   -5.2500   -1.0590 C   0  0
    5.7810   -5.4670    0.2420 C   0  0
    4.0620   -4.5490   -1.2250 C   0  0
    5.0760   -4.9810    1.3590 C   0  0
    7.0550   -6.2050    0.4610 C   0  0
    3.3650   -4.0700   -0.1020 C   0  0
    3.8690   -4.2830    1.1910 C   0  0
    1.8810   -3.2150   -0.3200 S   0  0
    3.2170   -3.8300    2.2440 O   0  0
    1.0080   -3.5200    0.7990 O   0  0
    1.3180   -3.5940   -1.6060 O   0  0
    2.1020   -1.6090   -0.3420 N   0  0
    3.5760   -4.3400    3.5200 C   0  0
    1.0490   -0.7890   -0.4730 C   0  0
   -0.2680   -1.3090   -0.4840 C   0  0
    1.2400    0.6050   -0.5980 C   0  0
   -1.3890   -0.4490   -0.6230 C   0  0
    0.1330    1.4710   -0.7340 C   0  0
   -1.2010    0.9650   -0.7480 C   0  0
   -2.7460   -1.0510   -0.6290 C   0  0
   -2.2790    1.8050   -0.8790 N   0  0
   -3.7620   -0.1640   -1.3560 C   0  0
   -2.1330    3.1620   -1.0370 C   0  0
   -3.6760    1.2810   -0.8520 C   0  0
   -1.2750    3.6070   -1.7620 O   0  0
   -3.0610    4.0800   -0.2770 C   0  0
   -3.9900    4.8440   -1.2360 C   0  0
   -2.2680    5.0510    0.6190 C   0  0
   -4.9100    5.8180   -0.4860 C   0  0
   -3.1900    6.0270    1.3630 C   0  0
   -4.1100    6.7850    0.3940 C   0  0
    3.6580   -4.3750   -2.2110 H   0  0
    5.4630   -5.1450    2.3530 H   0  0
    7.3400   -6.3090    1.5080 H   0  0
    7.8670   -5.6910   -0.0570 H   0  0
    6.9730   -7.2070    0.0390 H   0  0
    3.0230   -1.2300   -0.2580 H   0  0
    3.5160   -5.4280    3.4840 H   0  0
    4.5450   -3.9200    3.7950 H   0  0
    2.8440   -3.9880    4.2460 H   0  0
   -0.4320   -2.3730   -0.3870 H   0  0
    2.2360    1.0290   -0.5920 H   0  0
    0.3380    2.5290   -0.8260 H   0  0
   -2.7310   -2.0370   -1.0980 H   0  0
   -3.0610   -1.1990    0.4060 H   0  0
   -3.5720   -0.1910   -2.4300 H   0  0
   -4.7720   -0.5530   -1.2150 H   0  0
   -4.3240    1.9140   -1.4610 H   0  0
   -4.0490    1.3420    0.1720 H   0  0
   -3.6780    3.4530    0.3670 H   0  0
   -4.5960    4.1410   -1.8110 H   0  0
   -3.3970    5.4020   -1.9610 H   0  0
   -1.6700    4.4920    1.3400 H   0  0
   -1.5630    5.6210    0.0120 H   0  0
   -5.6080    5.2560    0.1350 H   0  0
   -5.5160    6.3810   -1.1990 H   0  0
   -3.7970    5.4770    2.0820 H   0  0
   -2.5940    6.7340    1.9370 H   0  0
   -4.7850    7.4320    0.9510 H   0  0
   -3.5080    7.4380   -0.2380 H   0  0
  1  2  1  0
  2  3  2  0
  2  4  1  0
  3  5  1  0
  3  6  1  0
  4  7  2  0
  5  8  2  0
  7  9  1  0
  8 10  1  0
  9 11  2  0
  9 12  2  0
  9 13  1  0
 10 14  1  0
 13 15  1  0
 15 16  2  0
 15 17  1  0
 16 18  1  0
 17 19  2  0
 18 20  2  0
 18 21  1  0
 20 22  1  0
 21 23  1  0
 22 24  1  0
 22 25  1  0
 24 26  2  0
 24 27  1  0
 27 28  1  0
 27 29  1  0
 28 30  1  0
 29 31  1  0
 30 32  1  0
  7  8  1  0
 19 20  1  0
 23 25  1  0
 31 32  1  0
  4 33  1  0
  5 34  1  0
  6 35  1  0
  6 36  1  0
  6 37  1  0
 13 38  1  0
 14 39  1  0
 14 40  1  0
 14 41  1  0
 16 42  1  0
 17 43  1  0
 19 44  1  0
 21 45  1  0
 21 46  1  0
 23 47  1  0
 23 48  1  0
 25 49  1  0
 25 50  1  0
 27 51  1  0
 28 52  1  0
 28 53  1  0
 29 54  1  0
 29 55  1  0
 30 56  1  0
 30 57  1  0
 31 58  1  0
 31 59  1  0
 32 60  1  0
 32 61  1  0
M  END
> <Name>
CHEMBL5278403

> <IC50 nM>
50000

> <Molecule_ChEMBL_ID>
CHEMBL5278403

> <Smiles>
COc1cc(C)c(Cl)cc1S(=O)(=O)Nc1ccc2c(c1)CCCN2C(=O)C1CCCCC1

$$$$
CHEMBL1911652
  SciTegic08162514323D

 55 57  0  0  1  0            999 V2000
    6.3480    0.9100    3.0220 F   0  0
    5.6480    0.7720    1.8990 C   0  0
    4.4920   -0.0310    1.8830 C   0  0
    6.0630    1.4260    0.7270 C   0  0
    3.7520   -0.1780    0.6970 C   0  0
    5.3240    1.2770   -0.4590 C   0  0
    4.1680    0.4770   -0.4800 C   0  0
    2.5330   -1.0290    0.6920 C   0  0
    3.4820    0.3460   -1.5980 O   0  0
    1.5760    0.1470    0.8930 C   0  0
    2.5230   -2.0040    1.8690 C   0  0
    2.3360   -1.7250   -0.6540 C   0  0
    3.9470    1.0350   -2.7500 C   0  0
    0.1070   -0.2620    0.7780 C   0  0  1  0  0  0
    0.0000   -1.6250    1.1230 O   0  0
   -0.6560    0.5570    1.8190 C   0  0
   -0.4470   -0.0820   -0.6370 C   0  0
   -1.9510    0.1130    1.8910 F   0  0
   -0.6470    1.8790    1.4570 F   0  0
   -0.0570    0.4140    3.0430 F   0  0
   -1.9610   -0.1150   -0.6400 C   0  0
   -2.7640    1.0510   -0.7170 N   0  0
   -2.8110   -1.2340   -0.5760 C   0  0
   -4.0840    0.6330   -0.6970 C   0  0
   -4.0650   -0.7360   -0.6130 C   0  0
   -5.2990    1.3560   -0.7480 C   0  0
   -5.2660   -1.4880   -0.5720 C   0  0
   -6.5180    0.6290   -0.7070 C   0  0
   -6.5000   -0.7910   -0.6210 C   0  0
   -7.8030    1.3460   -0.7580 C   0  0
    4.1740   -0.5330    2.7850 H   0  0
    6.9490    2.0410    0.7330 H   0  0
    5.6460    1.7810   -1.3590 H   0  0
    1.8070    0.9550    0.1970 H   0  0
    1.7640    0.6410    1.8460 H   0  0
    3.5160   -2.4060    2.0720 H   0  0
    1.8590   -2.8460    1.6660 H   0  0
    2.1700   -1.5120    2.7760 H   0  0
    1.6860   -2.5960   -0.5700 H   0  0
    3.2930   -2.0620   -1.0560 H   0  0
    1.8930   -1.0450   -1.3810 H   0  0
    3.8590    2.1060   -2.5640 H   0  0
    4.9430    0.6660   -2.9880 H   0  0
    3.2890    0.7870   -3.5840 H   0  0
   -0.8280   -1.9530    0.7380 H   0  0
   -0.0650   -0.8550   -1.3010 H   0  0
   -0.1040    0.8580   -1.0680 H   0  0
   -2.4400    1.9880   -0.7710 H   0  0
   -2.5140   -2.2730   -0.5120 H   0  0
   -5.2950    2.4340   -0.8140 H   0  0
   -5.2500   -2.5660   -0.5080 H   0  0
   -7.4280   -1.3460   -0.5900 H   0  0
   -8.6780    0.7010   -0.7130 H   0  0
   -7.8600    1.9240   -1.6800 H   0  0
   -7.8600    2.0450    0.0780 H   0  0
  1  2  1  0
  2  3  2  0
  2  4  1  0
  3  5  1  0
  4  6  2  0
  5  7  2  0
  5  8  1  0
  7  9  1  0
  8 10  1  0
  8 11  1  0
  8 12  1  0
  9 13  1  0
 10 14  1  0
 14 15  1  0
 14 16  1  0
 14 17  1  0
 16 18  1  0
 16 19  1  0
 16 20  1  0
 17 21  1  0
 21 22  1  0
 21 23  2  0
 22 24  1  0
 23 25  1  0
 24 26  1  0
 25 27  1  0
 26 28  2  0
 27 29  2  0
 28 30  1  0
  6  7  1  0
 24 25  2  0
 28 29  1  0
  3 31  1  0
  4 32  1  0
  6 33  1  0
 10 34  1  0
 10 35  1  0
 11 36  1  0
 11 37  1  0
 11 38  1  0
 12 39  1  0
 12 40  1  0
 12 41  1  0
 13 42  1  0
 13 43  1  0
 13 44  1  0
 15 45  1  0
 17 46  1  0
 17 47  1  0
 22 48  1  0
 23 49  1  0
 26 50  1  0
 27 51  1  0
 29 52  1  0
 30 53  1  0
 30 54  1  0
 30 55  1  0
M  END
> <Name>
CHEMBL1911652

> <IC50 nM>
38

> <Molecule_ChEMBL_ID>
CHEMBL1911652

> <Smiles>
COc1ccc(F)cc1C(C)(C)CC(O)(Cc1cc2ccc(C)cc2[nH]1)C(F)(F)F

$$$$
CHEMBL1911655
  SciTegic08162514323D

 53 56  0  0  1  0            999 V2000
    0.0310   -3.7720   -2.9160 F   0  0
    0.6970   -2.5760   -2.8440 C   0  0
    1.9690   -2.7330   -3.3320 F   0  0
    0.0330   -1.6370   -3.5880 F   0  0
    0.7660   -2.1190   -1.3850 C   0  0  1  0  0  0
   -0.3570   -2.6390   -0.7090 O   0  0
    2.0260   -2.6090   -0.6700 C   0  0
    0.6520   -0.5940   -1.4020 C   0  0
    2.1170   -2.0390    0.7290 C   0  0
   -0.7670   -0.1060   -1.1090 C   0  0
    1.5700   -2.6820    1.8670 N   0  0
    2.7250   -0.8400    1.1450 C   0  0
   -0.8480    1.3630   -1.1190 C   0  0
   -1.8100   -0.7330   -2.0330 C   0  0
   -1.1410   -0.2270    0.3690 C   0  0
    1.8500   -1.8730    2.9590 C   0  0
    2.5390   -0.7870    2.4830 C   0  0
   -2.1190    1.9880   -1.2340 C   0  0
    0.3420    2.1210   -1.0170 C   0  0
    1.5470   -2.0140    4.3340 C   0  0
    2.9790    0.2440    3.3460 C   0  0
   -3.3280    1.4340   -1.3340 O   0  0
   -2.1740    3.3890   -1.2460 C   0  0
    0.2720    3.5270   -1.0270 C   0  0
    1.9770   -0.9940    5.2250 C   0  0
    2.6900    0.1310    4.7330 C   0  0
   -4.3480    2.4430   -1.4180 C   0  0
   -0.9840    4.1540   -1.1420 C   0  0
   -3.6130    3.8180   -1.3810 C   0  0
   -0.1580   -2.6060    0.2400 H   0  0
    2.9180   -2.3380   -1.2340 H   0  0
    2.0410   -3.6970   -0.6210 H   0  0
    1.3630   -0.1490   -0.7090 H   0  0
    1.0100   -0.1910   -2.3490 H   0  0
    1.0800   -3.5450    1.8810 H   0  0
    3.2350   -0.1170    0.5200 H   0  0
   -2.8140   -0.6680   -1.6150 H   0  0
   -1.5880   -1.7870   -2.2070 H   0  0
   -1.8180   -0.2320   -3.0020 H   0  0
   -1.8710    0.5330    0.6470 H   0  0
   -1.5550   -1.2130    0.5820 H   0  0
   -0.2620   -0.0920    1.0000 H   0  0
    1.2990    1.6290   -0.9330 H   0  0
    1.0060   -2.8730    4.6970 H   0  0
    3.5240    1.0980    2.9690 H   0  0
    1.1720    4.1170   -0.9490 H   0  0
    1.7580   -1.0760    6.2800 H   0  0
    3.0160    0.9040    5.4120 H   0  0
   -5.0210    2.3260   -0.5800 H   0  0
   -4.9060    2.3050   -2.3320 H   0  0
   -1.0430    5.2340   -1.1500 H   0  0
   -3.7600    4.3790   -2.2930 H   0  0
   -3.9180    4.4200   -0.5370 H   0  0
  1  2  1  0
  2  3  1  0
  2  4  1  0
  2  5  1  0
  5  6  1  0
  5  7  1  0
  5  8  1  0
  7  9  1  0
  8 10  1  0
  9 11  1  0
  9 12  2  0
 10 13  1  0
 10 14  1  0
 10 15  1  0
 11 16  1  0
 12 17  1  0
 13 18  2  0
 13 19  1  0
 16 20  1  0
 17 21  1  0
 18 22  1  0
 18 23  1  0
 19 24  2  0
 20 25  2  0
 21 26  2  0
 22 27  1  0
 23 28  2  0
 23 29  1  0
 16 17  2  0
 24 28  1  0
 25 26  1  0
 27 29  1  0
  6 30  1  0
  7 31  1  0
  7 32  1  0
  8 33  1  0
  8 34  1  0
 11 35  1  0
 12 36  1  0
 14 37  1  0
 14 38  1  0
 14 39  1  0
 15 40  1  0
 15 41  1  0
 15 42  1  0
 19 43  1  0
 20 44  1  0
 21 45  1  0
 24 46  1  0
 25 47  1  0
 26 48  1  0
 27 49  1  0
 27 50  1  0
 28 51  1  0
 29 52  1  0
 29 53  1  0
M  END
> <Name>
CHEMBL1911655

> <IC50 nM>
19

> <Molecule_ChEMBL_ID>
CHEMBL1911655

> <Smiles>
CC(C)(CC(O)(Cc1cc2ccccc2[nH]1)C(F)(F)F)c1cccc2c1OCC2

$$$$
CHEMBL1911653
  SciTegic08162514323D

 55 57  0  0  1  0            999 V2000
    5.9080    1.6370   -2.2580 F   0  0
    5.4000    1.1680   -1.1190 C   0  0
    4.2340    0.3830   -1.1410 C   0  0
    6.0290    1.4570    0.1040 C   0  0
    3.6970   -0.1130    0.0610 C   0  0
    5.4940    0.9610    1.3030 C   0  0
    4.3280    0.1760    1.2870 C   0  0
    2.4630   -0.9410    0.0270 C   0  0
    3.8320   -0.2830    2.4200 O   0  0
    1.5430    0.2090    0.4360 C   0  0
    2.5080   -2.0610    1.0700 C   0  0
    2.1700   -1.4590   -1.3810 C   0  0
    4.6130   -0.1370    3.5980 C   0  0
    0.0610   -0.1540    0.3300 C   0  0  1  0  0  0
   -0.0880   -1.5100    0.6860 O   0  0
   -0.6720    0.6970    1.3670 C   0  0
   -0.4920    0.0330   -1.0820 C   0  0
   -1.9810    0.2970    1.4450 F   0  0
   -0.6190    2.0160    0.9980 F   0  0
   -0.0720    0.5410    2.5920 F   0  0
   -2.0060    0.0000   -1.0880 C   0  0
   -2.8090    1.1660   -1.1620 N   0  0
   -2.8560   -1.1190   -1.0230 C   0  0
   -4.1290    0.7480   -1.1440 C   0  0
   -4.1110   -0.6210   -1.0600 C   0  0
   -5.3440    1.4710   -1.1930 C   0  0
   -5.3110   -1.3730   -1.0190 C   0  0
   -6.5650    0.7440   -1.1540 C   0  0
   -6.5450   -0.6760   -1.0680 C   0  0
   -7.8480    1.4610   -1.2030 C   0  0
   -8.8770    0.5620   -1.1090 F   0  0
   -7.9440    2.1440   -2.3890 F   0  0
   -7.9160    2.3480   -0.1600 F   0  0
    3.7500    0.1620   -2.0820 H   0  0
    6.9260    2.0590    0.1230 H   0  0
    5.9810    1.1850    2.2400 H   0  0
    1.7640    1.1030   -0.1460 H   0  0
    1.7830    0.5570    1.4410 H   0  0
    3.5230   -2.4160    1.2400 H   0  0
    1.9060   -2.9100    0.7480 H   0  0
    2.1090   -1.7130    2.0240 H   0  0
    3.0330   -1.9650   -1.8160 H   0  0
    1.8960   -0.6390   -2.0430 H   0  0
    1.3420   -2.1680   -1.3670 H   0  0
    5.5760   -0.6230    3.4320 H   0  0
    4.6470    0.9220    3.8560 H   0  0
    4.1110   -0.6620    4.4080 H   0  0
   -1.0370   -1.7090    0.6620 H   0  0
   -0.1090   -0.7380   -1.7520 H   0  0
   -0.1480    0.9750   -1.5100 H   0  0
   -2.4840    2.1030   -1.2190 H   0  0
   -2.5590   -2.1580   -0.9570 H   0  0
   -5.3400    2.5490   -1.2620 H   0  0
   -5.2950   -2.4510   -0.9530 H   0  0
   -7.4730   -1.2310   -1.0370 H   0  0
  1  2  1  0
  2  3  2  0
  2  4  1  0
  3  5  1  0
  4  6  2  0
  5  7  2  0
  5  8  1  0
  7  9  1  0
  8 10  1  0
  8 11  1  0
  8 12  1  0
  9 13  1  0
 10 14  1  0
 14 15  1  0
 14 16  1  0
 14 17  1  0
 16 18  1  0
 16 19  1  0
 16 20  1  0
 17 21  1  0
 21 22  1  0
 21 23  2  0
 22 24  1  0
 23 25  1  0
 24 26  1  0
 25 27  1  0
 26 28  2  0
 27 29  2  0
 28 30  1  0
 30 31  1  0
 30 32  1  0
 30 33  1  0
  6  7  1  0
 24 25  2  0
 28 29  1  0
  3 34  1  0
  4 35  1  0
  6 36  1  0
 10 37  1  0
 10 38  1  0
 11 39  1  0
 11 40  1  0
 11 41  1  0
 12 42  1  0
 12 43  1  0
 12 44  1  0
 13 45  1  0
 13 46  1  0
 13 47  1  0
 15 48  1  0
 17 49  1  0
 17 50  1  0
 22 51  1  0
 23 52  1  0
 26 53  1  0
 27 54  1  0
 29 55  1  0
M  END
> <Name>
CHEMBL1911653

> <IC50 nM>
77

> <Molecule_ChEMBL_ID>
CHEMBL1911653

> <Smiles>
COc1ccc(F)cc1C(C)(C)CC(O)(Cc1cc2ccc(C(F)(F)F)cc2[nH]1)C(F)(F)F

$$$$
CHEMBL3094477
  SciTegic08162514323D

 48 49  0  0  1  0            999 V2000
    0.7440   -1.0370    0.6580 S   0  0
    0.9450   -2.4770    0.6450 O   0  0
    1.9670   -0.2910    0.9000 O   0  0
    0.2310   -0.6090   -0.9470 N   0  0
   -0.3810   -0.6580    1.9140 C   0  0
    1.1720   -0.7930   -2.0370 C   0  0  2  0  0  0
   -0.4750   -1.4860    3.0490 C   0  0
   -1.2030    0.4790    1.8030 C   0  0
    0.6600   -0.1150   -3.3090 C   0  0
    1.4710   -2.2790   -2.2400 C   0  0
   -1.3910   -1.1780    4.0680 C   0  0
    0.3910   -2.6890    3.1740 C   0  0
   -2.1190    0.7850    2.8240 C   0  0
   -1.1110    1.3570    0.6070 C   0  0
    0.4980    1.3500   -3.1190 C   0  0
    2.8690   -2.6720   -1.7620 C   0  0
   -2.2130   -0.0410    3.9570 C   0  0
   -0.7790    1.8930   -2.8870 C   0  0
    1.6210    2.1950   -3.1720 C   0  0
   -3.1820    0.2850    5.0370 C   0  0
   -0.9340    3.2770   -2.7090 C   0  0
    1.4670    3.5820   -2.9920 C   0  0
   -2.1430    3.7910   -2.4920 F   0  0
    0.1900    4.1230   -2.7620 C   0  0
    2.5290    4.3810   -3.0410 F   0  0
   -0.6350   -1.1190   -1.1780 H   0  0
    2.0490   -0.2730   -1.6500 H   0  0
   -0.2890   -0.5490   -3.6210 H   0  0
    1.3360   -0.3010   -4.1430 H   0  0
    0.7110   -2.8950   -1.7580 H   0  0
    1.3280   -2.5630   -3.2830 H   0  0
   -1.4630   -1.8130    4.9400 H   0  0
    1.4360   -2.5180    2.9180 H   0  0
    0.0140   -3.4790    2.5230 H   0  0
    0.3540   -3.0590    4.1990 H   0  0
   -2.7500    1.6580    2.7380 H   0  0
   -0.0920    1.5610    0.2770 H   0  0
   -1.5880    2.3140    0.8220 H   0  0
   -1.6440    0.8980   -0.2250 H   0  0
    3.0260   -3.7460   -1.8650 H   0  0
    3.6350   -2.1450   -2.3320 H   0  0
    3.0020   -2.4160   -0.7090 H   0  0
   -1.6430    1.2440   -2.8460 H   0  0
    2.6020    1.7790   -3.3520 H   0  0
   -3.7700    1.1840    4.8560 H   0  0
   -2.6440    0.4220    5.9770 H   0  0
   -3.8730   -0.5470    5.1680 H   0  0
    0.0720    5.1880   -2.6250 H   0  0
  1  2  2  0
  1  3  2  0
  1  4  1  0
  1  5  1  0
  6  4  1  0
  5  7  2  0
  5  8  1  0
  6  9  1  0
  6 10  1  0
  7 11  1  0
  7 12  1  0
  8 13  2  0
  8 14  1  0
  9 15  1  0
 10 16  1  0
 11 17  2  0
 15 18  2  0
 15 19  1  0
 17 20  1  0
 18 21  1  0
 19 22  2  0
 21 23  1  0
 21 24  2  0
 22 25  1  0
 13 17  1  0
 22 24  1  0
  4 26  1  0
  6 27  1  0
  9 28  1  0
  9 29  1  0
 10 30  1  0
 10 31  1  0
 11 32  1  0
 12 33  1  0
 12 34  1  0
 12 35  1  0
 13 36  1  0
 14 37  1  0
 14 38  1  0
 14 39  1  0
 16 40  1  0
 16 41  1  0
 16 42  1  0
 18 43  1  0
 19 44  1  0
 20 45  1  0
 20 46  1  0
 20 47  1  0
 24 48  1  0
M  END
> <Name>
CHEMBL3094477

> <IC50 nM>
48

> <Molecule_ChEMBL_ID>
CHEMBL3094477

> <Smiles>
CCC(Cc1cc(F)cc(F)c1)NS(=O)(=O)c1c(C)cc(C)cc1C

$$$$
CHEMBL4070346
  SciTegic08162514323D

 79 84  0  0  1  0            999 V2000
    0.2150   -0.2340    8.6250 F   0  0
    1.5590   -0.4530    8.7870 C   0  0
    1.7910   -1.8010    8.8930 F   0  0
    2.3300    0.1250    7.6310 C   0  0
    2.0410    0.2480   10.0570 C   0  0
    3.1580    0.9880    7.8050 O   0  0
    2.0760   -0.3440    6.3730 N   0  0
    2.8200    0.2090    5.2320 C   0  0  2  0  0  0
    2.0570    0.0000    3.9260 C   0  0  2  0  0  0
    4.2420   -0.3520    5.1820 C   0  0
    2.8260    0.5000    2.8420 O   0  0
    0.7480    0.6740    3.9510 C   0  0
    2.2850    0.4590    1.6150 C   0  0
   -0.4360   -0.0860    4.1110 C   0  0
    0.6740    2.0800    3.8110 C   0  0
    2.7300    1.3670    0.6170 C   0  0
    1.2730   -0.4920    1.3200 C   0  0
   -1.6930    0.5610    4.1310 C   0  0
   -0.5820    2.7330    3.8460 C   0  0
    2.1500    1.3150   -0.6780 C   0  0
    0.6970   -0.5410    0.0250 C   0  0
   -2.8240   -0.1640    4.2540 O   0  0
   -1.7660    1.9770    4.0220 C   0  0
    1.1660    0.3810   -0.9390 C   0  0
    2.5310    2.1660   -1.6990 C   0  0
   -4.0900    0.4490    3.9810 C   0  0
   -2.9610    2.5980    4.0840 O   0  0
    0.8690    0.6310   -2.2400 N   0  0
    1.6720    1.6700   -2.6600 N   0  0
   -4.1080    1.8770    4.5550 C   0  0
   -0.0490   -0.0140   -3.0060 C   0  0
    0.2580   -0.3590   -4.3360 C   0  0
   -1.3110   -0.3360   -2.4710 C   0  0
   -0.6950   -1.0250   -5.1290 C   0  0
   -2.2600   -1.0020   -3.2640 C   0  0
   -0.3710   -1.3930   -6.5390 C   0  0
   -1.9550   -1.3480   -4.5900 C   0  0
    0.5960   -2.0720   -6.7990 O   0  0
   -1.2070   -0.9370   -7.5740 N   0  0
   -1.0080   -1.2640   -8.9750 C   0  0  1  0  0  0
   -2.3500   -0.0760   -7.3380 C   0  0
   -0.7750   -2.7360   -9.2170 C   0  0
   -2.2850   -0.7420   -9.6490 C   0  0
   -2.7360    0.4120   -8.7350 C   0  0
   -1.1350   -3.5630   -8.4120 O   0  0
   -0.1450   -3.1210  -10.3650 N   0  0
    1.5250   -0.1190   10.9440 H   0  0
    1.8690    1.3220    9.9900 H   0  0
    3.1090    0.0900   10.2010 H   0  0
    1.3910   -1.0590    6.2310 H   0  0
    3.0060    1.2700    5.4060 H   0  0
    1.9120   -1.0680    3.7770 H   0  0
    4.7640   -0.1660    6.1190 H   0  0
    4.2270   -1.4260    4.9900 H   0  0
    4.8140    0.1190    4.3830 H   0  0
   -0.3830   -1.1600    4.2150 H   0  0
    1.5740    2.6640    3.6800 H   0  0
    3.5000    2.0880    0.8540 H   0  0
    0.9390   -1.1800    2.0820 H   0  0
   -0.6350    3.8050    3.7400 H   0  0
   -0.0740   -1.2600   -0.2110 H   0  0
    3.2520    2.9690   -1.7810 H   0  0
   -4.2330    0.4770    2.8980 H   0  0
   -4.8810   -0.1700    4.4060 H   0  0
   -5.0060    2.4220    4.2680 H   0  0
   -4.0680    1.8460    5.6450 H   0  0
    1.2230   -0.1150   -4.7600 H   0  0
   -1.5650   -0.0800   -1.4510 H   0  0
   -3.2290   -1.2500   -2.8520 H   0  0
   -2.6920   -1.8590   -5.1920 H   0  0
   -0.1540   -0.7070   -9.3340 H   0  0
   -3.1450   -0.6540   -6.8930 H   0  0
   -2.1000    0.7420   -6.6780 H   0  0
   -2.1170   -0.4220  -10.6660 H   0  0
   -3.0510   -1.5060   -9.6640 H   0  0
   -3.7910    0.6270   -8.8240 H   0  0
   -2.1920    1.3130   -8.9810 H   0  0
    0.0410   -4.0820  -10.5690 H   0  0
    0.1460   -2.4360  -11.0330 H   0  0
  1  2  1  0
  2  3  1  0
  2  4  1  0
  2  5  1  0
  4  6  2  0
  4  7  1  0
  7  8  1  0
  8  9  1  0
  8 10  1  0
  9 11  1  0
  9 12  1  0
 11 13  1  0
 12 14  2  0
 12 15  1  0
 13 16  2  0
 13 17  1  0
 14 18  1  0
 15 19  2  0
 16 20  1  0
 17 21  2  0
 18 22  1  0
 18 23  2  0
 20 24  2  0
 20 25  1  0
 22 26  1  0
 23 27  1  0
 24 28  1  0
 25 29  2  0
 26 30  1  0
 28 31  1  0
 31 32  2  0
 31 33  1  0
 32 34  1  0
 33 35  2  0
 34 36  1  0
 34 37  2  0
 36 38  2  0
 36 39  1  0
 39 40  1  0
 39 41  1  0
 40 42  1  0
 40 43  1  0
 41 44  1  0
 42 45  2  0
 42 46  1  0
 19 23  1  0
 21 24  1  0
 27 30  1  0
 28 29  1  0
 35 37  1  0
 43 44  1  0
  5 47  1  0
  5 48  1  0
  5 49  1  0
  7 50  1  0
  8 51  1  0
  9 52  1  0
 10 53  1  0
 10 54  1  0
 10 55  1  0
 14 56  1  0
 15 57  1  0
 16 58  1  0
 17 59  1  0
 19 60  1  0
 21 61  1  0
 25 62  1  0
 26 63  1  0
 26 64  1  0
 30 65  1  0
 30 66  1  0
 32 67  1  0
 33 68  1  0
 35 69  1  0
 37 70  1  0
 40 71  1  0
 41 72  1  0
 41 73  1  0
 43 74  1  0
 43 75  1  0
 44 76  1  0
 44 77  1  0
 46 78  1  0
 46 79  1  0
M  END
> <Name>
CHEMBL4070346

> <IC50 nM>
0.12

> <Molecule_ChEMBL_ID>
CHEMBL4070346

> <Smiles>
C[C@H](NC(=O)C(C)(F)F)[C@H](Oc1ccc2c(cnn2-c2cccc(C(=O)N3CCC[C@@H]3C(N)=O)c2)c1)c1ccc2c(c1)OCCO2

$$$$
CHEMBL4754348
  SciTegic08162514323D

 72 75  0  0  1  0            999 V2000
   -5.3990   -9.1840   -0.1040 F   0  0
   -4.1720   -8.6580   -0.4200 C   0  0
   -3.2230   -9.6470   -0.3610 F   0  0
   -4.2110   -8.1390   -1.6880 F   0  0
   -3.8710   -7.5780    0.5840 C   0  0
   -4.6540   -7.3150    1.4670 O   0  0
   -2.6930   -6.8970    0.4800 N   0  0
   -2.3830   -5.8380    1.4510 C   0  0  2  0  0  0
   -1.4530   -4.7890    0.8420 C   0  0  2  0  0  0
   -1.8340   -6.4300    2.7500 C   0  0
   -1.1640   -3.7910    1.8110 O   0  0
   -2.0590   -4.1520   -0.3570 C   0  0
   -0.4710   -2.7380    1.4280 C   0  0
   -1.5650   -4.4550   -1.6390 C   0  0
   -3.1250   -3.2480   -0.2130 C   0  0
   -0.6520   -1.4940    2.0640 C   0  0
    0.4610   -2.8420    0.3810 C   0  0
   -2.1370   -3.8540   -2.7730 C   0  0
   -3.6970   -2.6470   -1.3480 C   0  0
    0.0550   -0.3910    1.6840 N   0  0
    1.1840   -1.7010   -0.0040 C   0  0
   -3.2030   -2.9470   -2.6290 C   0  0
    0.9610   -0.4800    0.6660 C   0  0
   -3.8090   -2.3130   -3.8280 C   0  0
    1.7250    0.7360    0.2660 C   0  0
    2.5350    0.6930   -0.6310 O   0  0
    1.4920    1.9060    0.9300 N   0  0
    2.2380    3.1190    0.5450 C   0  0  1  0  0  0
    1.5250    4.3890    1.0550 C   0  0
    3.6930    3.0490    1.0450 C   0  0
    2.3260    5.6060    0.7770 N   0  0
    4.4590    4.3180    0.6450 C   0  0
    1.7580    6.7070    0.1950 C   0  0
    3.7640    5.5960    1.1470 C   0  0
    0.5900    6.7010   -0.1110 O   0  0
    2.6190    7.9240   -0.0510 C   0  0  1  0  0  0
    3.5230    7.7540   -1.2790 C   0  0
    1.8070    9.1350   -0.5120 C   0  0
    2.7660    8.1430   -2.4240 O   0  0
    1.8380    8.9920   -2.0040 C   0  0
    1.0740    9.5920   -2.7250 O   0  0
   -2.0470   -7.1150   -0.2520 H   0  0
   -3.3130   -5.3790    1.7910 H   0  0
   -0.5180   -5.2750    0.5630 H   0  0
   -2.5310   -7.1540    3.1680 H   0  0
   -0.8750   -6.9200    2.5760 H   0  0
   -1.6800   -5.6490    3.4940 H   0  0
   -0.7460   -5.1490   -1.7580 H   0  0
   -3.5080   -3.0120    0.7700 H   0  0
   -1.3670   -1.4080    2.8690 H   0  0
    0.6190   -3.7850   -0.1230 H   0  0
   -1.7520   -4.0900   -3.7560 H   0  0
   -4.5160   -1.9510   -1.2290 H   0  0
    1.9020   -1.7640   -0.8090 H   0  0
   -4.6270   -1.6270   -3.6090 H   0  0
   -4.1900   -3.0840   -4.4960 H   0  0
   -3.0430   -1.7540   -4.3690 H   0  0
    0.8180    1.9340    1.6700 H   0  0
    2.2560    3.1470   -0.5470 H   0  0
    0.5370    4.4810    0.6000 H   0  0
    1.3710    4.3320    2.1350 H   0  0
    4.2010    2.1740    0.6370 H   0  0
    3.7130    2.9470    2.1310 H   0  0
    4.5490    4.3560   -0.4410 H   0  0
    5.4790    4.2750    1.0330 H   0  0
    4.2660    6.4770    0.7480 H   0  0
    3.8380    5.6540    2.2320 H   0  0
    3.1890    8.1390    0.8420 H   0  0
    3.8950    6.7480   -1.4140 H   0  0
    4.3790    8.4140   -1.2090 H   0  0
    0.7950    9.1450   -0.1290 H   0  0
    2.2870   10.0610   -0.2290 H   0  0
  1  2  1  0
  2  3  1  0
  2  4  1  0
  2  5  1  0
  5  6  2  0
  5  7  1  0
  7  8  1  0
  8  9  1  0
  8 10  1  0
  9 11  1  0
  9 12  1  0
 11 13  1  0
 12 14  2  0
 12 15  1  0
 13 16  2  0
 13 17  1  0
 14 18  1  0
 15 19  2  0
 16 20  1  0
 17 21  2  0
 18 22  2  0
 20 23  2  0
 22 24  1  0
 23 25  1  0
 25 26  2  0
 25 27  1  0
 28 27  1  0
 28 29  1  0
 28 30  1  0
 29 31  1  0
 30 32  1  0
 31 33  1  0
 31 34  1  0
 33 35  2  0
 36 33  1  0
 36 37  1  0
 36 38  1  0
 37 39  1  0
 38 40  1  0
 40 41  2  0
 19 22  1  0
 21 23  1  0
 32 34  1  0
 39 40  1  0
  7 42  1  0
  8 43  1  0
  9 44  1  0
 10 45  1  0
 10 46  1  0
 10 47  1  0
 14 48  1  0
 15 49  1  0
 16 50  1  0
 17 51  1  0
 18 52  1  0
 19 53  1  0
 21 54  1  0
 24 55  1  0
 24 56  1  0
 24 57  1  0
 27 58  1  0
 28 59  1  0
 29 60  1  0
 29 61  1  0
 30 62  1  0
 30 63  1  0
 32 64  1  0
 32 65  1  0
 34 66  1  0
 34 67  1  0
 36 68  1  0
 37 69  1  0
 37 70  1  0
 38 71  1  0
 38 72  1  0
M  END
> <Name>
CHEMBL4754348

> <IC50 nM>
21

> <Molecule_ChEMBL_ID>
CHEMBL4754348

> <Smiles>
Cc1ccc([C@@H](Oc2ccc(C(=O)N[C@@H]3CCCN(C(=O)[C@H]4COC(=O)C4)C3)nc2)[C@H](C)NC(=O)C(F)(F)F)cc1

$$$$
CHEMBL3582121
  SciTegic08162514323D

 51 55  0  0  0  0            999 V2000
    3.7250   -2.3180   -0.4860 O   0  0
    2.7870   -1.8550    0.1270 C   0  0
    1.9900   -2.7210    1.0900 C   0  0
    2.3830   -0.4000   -0.0530 C   0  0
    0.5410   -2.3890    1.0980 N   0  0
    2.1450   -4.1990    0.7110 C   0  0
    2.5450   -2.5060    2.5000 C   0  0
    0.9120   -0.1910    0.0960 C   0  0
    3.1130    0.4180    1.0180 C   0  0
    2.8440    0.0640   -1.4430 C   0  0
    0.0760   -1.1930    0.6520 C   0  0
    0.3090    1.0220   -0.3100 C   0  0
   -1.3380   -1.0290    0.7950 C   0  0
   -1.0860    1.1990   -0.1720 C   0  0
   -1.9160    0.1840    0.3750 C   0  0
   -2.3890   -1.9610    1.3480 C   0  0
   -1.6930    2.4730   -0.6090 C   0  0
   -3.4040    0.1930    0.6000 C   0  0
   -3.7310   -1.2600    1.0220 C   0  0
   -1.4140    2.9490   -1.9410 N   0  0
   -2.5060    3.2010    0.2090 C   0  0
   -1.9820    4.1090   -2.3110 C   0  0
   -0.6580    2.4260   -2.9160 C   0  0
   -3.0820    4.4020   -0.2010 N   0  0
   -1.5920    4.3750   -3.5920 N   0  0
   -2.8670    4.8790   -1.3890 C   0  0
   -0.7750    3.3400   -3.9710 C   0  0
   -0.0680   -3.0960    1.4610 H   0  0
    1.7770   -4.3980   -0.2970 H   0  0
    1.5880   -4.8340    1.4000 H   0  0
    3.1910   -4.5000    0.7500 H   0  0
    2.2660   -1.5230    2.8790 H   0  0
    2.1700   -3.2700    3.1820 H   0  0
    3.6330   -2.5660    2.5000 H   0  0
    2.6950    0.2560    2.0100 H   0  0
    3.0470    1.4840    0.7990 H   0  0
    4.1700    0.1500    1.0530 H   0  0
    2.2950   -0.4360   -2.2420 H   0  0
    3.9040   -0.1460   -1.5880 H   0  0
    2.6990    1.1390   -1.5600 H   0  0
    0.9140    1.8130   -0.7260 H   0  0
   -2.2520   -2.0680    2.4140 H   0  0
   -2.3320   -2.9390    0.8930 H   0  0
   -3.9360    0.4810   -0.2970 H   0  0
   -3.6480    0.8950    1.3830 H   0  0
   -4.4120   -1.2890    1.8610 H   0  0
   -4.2170   -1.7730    0.2030 H   0  0
   -2.7010    2.8240    1.2050 H   0  0
   -0.0980    1.5020   -2.8690 H   0  0
   -3.3110    5.8090   -1.7150 H   0  0
   -0.3110    3.2750   -4.9450 H   0  0
  1  2  2  0
  2  3  1  0
  2  4  1  0
  3  5  1  0
  3  6  1  0
  3  7  1  0
  4  8  1  0
  4  9  1  0
  4 10  1  0
  5 11  1  0
  8 12  2  0
 11 13  2  0
 12 14  1  0
 13 15  1  0
 13 16  1  0
 14 17  1  0
 15 18  1  0
 16 19  1  0
 17 20  1  0
 17 21  2  0
 20 22  1  0
 20 23  1  0
 21 24  1  0
 22 25  2  0
 22 26  1  0
 23 27  2  0
  8 11  1  0
 14 15  2  0
 18 19  1  0
 24 26  2  0
 25 27  1  0
  5 28  1  0
  6 29  1  0
  6 30  1  0
  6 31  1  0
  7 32  1  0
  7 33  1  0
  7 34  1  0
  9 35  1  0
  9 36  1  0
  9 37  1  0
 10 38  1  0
 10 39  1  0
 10 40  1  0
 12 41  1  0
 16 42  1  0
 16 43  1  0
 18 44  1  0
 18 45  1  0
 19 46  1  0
 19 47  1  0
 21 48  1  0
 23 49  1  0
 26 50  1  0
 27 51  1  0
M  END
> <Name>
CHEMBL3582121

> <IC50 nM>
93

> <Molecule_ChEMBL_ID>
CHEMBL3582121

> <Smiles>
CC1(C)Nc2c(cc(-c3cncc4nccn34)c3c2CCC3)C(C)(C)C1=O

$$$$
CHEMBL379024
  SciTegic08162514323D

 59 62  0  0  0  0            999 V2000
   -1.2250   -0.8160    0.8200 S   0  0
   -1.6030   -0.3590   -0.8950 C   0  0
   -0.9100   -2.5860    0.5700 C   0  0
   -1.9100    1.1170   -0.9650 C   0  0
   -0.5530   -3.2720    1.8890 C   0  0
   -0.8240    2.1410   -0.9140 C   0  0
   -3.1950    1.5120   -1.0760 C   0  0
   -0.3010   -4.7250    1.7010 C   0  0
   -1.1580    3.5250   -0.9860 C   0  0
    0.5310    1.7400   -0.7970 C   0  0
   -3.5980    2.9750   -1.1520 C   0  0
    0.9960   -5.1820    1.4040 C   0  0
   -1.3590   -5.6430    1.8220 C   0  0
   -2.4490    3.9260   -1.1000 N   0  0
   -0.1170    4.4880   -0.9360 C   0  0
    1.5650    2.7090   -0.7460 C   0  0
   -4.3500    3.1910   -2.4690 C   0  0
   -4.5310    3.2730    0.0230 C   0  0
    1.2330   -6.5550    1.2260 C   0  0
   -1.1190   -7.0180    1.6440 C   0  0
    1.2330    4.0840   -0.8170 C   0  0
    2.9570    2.2950   -0.6250 C   0  0
    0.1760   -7.4730    1.3460 C   0  0
    3.3440    1.3630    0.3610 C   0  0
    3.9180    2.8320   -1.5020 C   0  0
    2.4630    0.8460    1.1950 O   0  0
    4.6940    0.9770    0.4610 C   0  0
    5.2640    2.4410   -1.3970 C   0  0
    2.8730   -0.2380    2.0140 C   0  0
    5.6510    1.5140   -0.4160 C   0  0
    6.1720    2.9490   -2.2270 F   0  0
   -0.7480   -0.5900   -1.5310 H   0  0
   -2.4630   -0.9320   -1.2420 H   0  0
   -0.1110   -2.7150   -0.1600 H   0  0
   -1.7890   -3.0510    0.1210 H   0  0
   -1.3460   -3.1330    2.6230 H   0  0
    0.3240   -2.8050    2.3400 H   0  0
   -3.9710    0.7600   -1.1110 H   0  0
    0.7830    0.6910   -0.7440 H   0  0
    1.8130   -4.4810    1.3100 H   0  0
   -2.3570   -5.2990    2.0510 H   0  0
   -2.6640    4.9040   -1.1520 H   0  0
   -0.3400    5.5470   -0.9860 H   0  0
   -3.7210    2.9900   -3.3340 H   0  0
   -4.7010    4.2210   -2.5450 H   0  0
   -5.2190    2.5370   -2.5270 H   0  0
   -4.0330    3.1290    0.9820 H   0  0
   -5.4020    2.6190   -0.0020 H   0  0
   -4.8850    4.3030   -0.0180 H   0  0
    2.2290   -6.9060    0.9980 H   0  0
   -1.9340   -7.7230    1.7360 H   0  0
    2.0040    4.8400   -0.7810 H   0  0
    0.3590   -8.5290    1.2090 H   0  0
    3.6330    3.5470   -2.2620 H   0  0
    4.9960    0.2660    1.2150 H   0  0
    2.0180   -0.5660    2.6030 H   0  0
    3.3380   -0.9920    1.3770 H   0  0
    3.6330    0.1250    2.7050 H   0  0
    6.6860    1.2110   -0.3300 H   0  0
  1  2  1  0
  1  3  1  0
  2  4  1  0
  3  5  1  0
  4  6  1  0
  4  7  2  0
  5  8  1  0
  6  9  2  0
  6 10  1  0
  7 11  1  0
  8 12  2  0
  8 13  1  0
  9 14  1  0
  9 15  1  0
 10 16  2  0
 11 17  1  0
 11 18  1  0
 12 19  1  0
 13 20  2  0
 15 21  2  0
 16 22  1  0
 19 23  2  0
 22 24  2  0
 22 25  1  0
 24 26  1  0
 24 27  1  0
 25 28  2  0
 26 29  1  0
 27 30  2  0
 28 31  1  0
 11 14  1  0
 16 21  1  0
 20 23  1  0
 28 30  1  0
  2 32  1  0
  2 33  1  0
  3 34  1  0
  3 35  1  0
  5 36  1  0
  5 37  1  0
  7 38  1  0
 10 39  1  0
 12 40  1  0
 13 41  1  0
 14 42  1  0
 15 43  1  0
 17 44  1  0
 17 45  1  0
 17 46  1  0
 18 47  1  0
 18 48  1  0
 18 49  1  0
 19 50  1  0
 20 51  1  0
 21 52  1  0
 23 53  1  0
 25 54  1  0
 27 55  1  0
 29 56  1  0
 29 57  1  0
 29 58  1  0
 30 59  1  0
M  END
> <Name>
CHEMBL379024

> <IC50 nM>
84

> <Molecule_ChEMBL_ID>
CHEMBL379024

> <Smiles>
COc1ccc(F)cc1-c1ccc2c(c1)C(CSCCc1ccccc1)=CC(C)(C)N2

$$$$
CHEMBL2087292
  SciTegic08162514323D

 57 60  0  0  0  0            999 V2000
    2.5760    3.0590    0.5740 Br  0  0
    0.7810    2.4530    0.6390 C   0  0
    0.1840    1.6740   -0.3910 C   0  0
    0.0250    2.8090    1.7720 C   0  0
    0.9140    1.3200   -1.5060 N   0  0
   -1.1720    1.2640   -0.2600 C   0  0
   -1.3110    2.4010    1.8950 C   0  0
    0.7210    2.0120   -2.7890 C   0  0
    1.9000    0.2340   -1.4240 C   0  0
   -2.0720    0.2230   -1.5640 Br  0  0
   -1.9040    1.6330    0.8830 C   0  0
   -2.0960    2.7830    3.0980 C   0  0
    0.5590    3.4790   -2.6000 C   0  0
    1.3930   -0.9080   -0.6210 C   0  0
   -2.3930    1.6000    3.9810 C   0  0
   -0.7190    4.0200   -2.3670 C   0  0
    1.6820    4.3240   -2.6520 C   0  0
    1.5880   -0.9340    0.7700 C   0  0
    0.7130   -1.9670   -1.2540 C   0  0
   -1.5800    0.7190    4.1310 O   0  0
   -3.5900    1.6130    4.5610 O   0  0
   -0.8730    5.4060   -2.1890 C   0  0
    1.5270    5.7090   -2.4730 C   0  0
    1.1060   -2.0160    1.5270 C   0  0
    0.2320   -3.0470   -0.4940 C   0  0
   -2.0820    5.9200   -1.9730 F   0  0
    0.2500    6.2500   -2.2420 C   0  0
    2.5900    6.5100   -2.5200 F   0  0
    0.4280   -3.0740    0.8990 C   0  0
   -0.0230   -4.0880    1.6110 O   0  0
    0.0140   -5.2890    1.0680 C   0  0
   -1.0450   -6.2070    1.2520 C   0  0
    1.1290   -5.6600    0.2970 C   0  0
   -2.5590   -5.7500    2.2830 Br  0  0
   -0.9770   -7.4820    0.6600 C   0  0
    1.1930   -6.9320   -0.2930 C   0  0
    0.1410   -7.8440   -0.1110 C   0  0
    0.4650    3.3990    2.5650 H   0  0
   -0.1620    1.6100   -3.2850 H   0  0
    1.5820    1.8220   -3.4320 H   0  0
    2.8160    0.6150   -0.9730 H   0  0
    2.1430   -0.1090   -2.4320 H   0  0
   -2.9360    1.3300    0.9980 H   0  0
   -1.5510    3.5390    3.6620 H   0  0
   -3.0270    3.2560    2.7870 H   0  0
   -1.5820    3.3710   -2.3240 H   0  0
    2.6620    3.9080   -2.8300 H   0  0
    2.1090   -0.1250    1.2620 H   0  0
    0.5590   -1.9530   -2.3220 H   0  0
   -3.8420    0.8830    5.1410 H   0  0
    1.2600   -2.0310    2.5980 H   0  0
   -0.2890   -3.8550   -0.9820 H   0  0
    0.1330    7.3170   -2.1030 H   0  0
    1.9410   -4.9630    0.1540 H   0  0
   -1.7750   -8.1990    0.7890 H   0  0
    2.0530   -7.2110   -0.8850 H   0  0
    0.1890   -8.8220   -0.5660 H   0  0
  1  2  1  0
  2  3  2  0
  2  4  1  0
  3  5  1  0
  3  6  1  0
  4  7  2  0
  5  8  1  0
  5  9  1  0
  6 10  1  0
  6 11  2  0
  7 12  1  0
  8 13  1  0
  9 14  1  0
 12 15  1  0
 13 16  2  0
 13 17  1  0
 14 18  2  0
 14 19  1  0
 15 20  2  0
 15 21  1  0
 16 22  1  0
 17 23  2  0
 18 24  1  0
 19 25  2  0
 22 26  1  0
 22 27  2  0
 23 28  1  0
 24 29  2  0
 29 30  1  0
 30 31  1  0
 31 32  2  0
 31 33  1  0
 32 34  1  0
 32 35  1  0
 33 36  2  0
 35 37  2  0
  7 11  1  0
 23 27  1  0
 25 29  1  0
 36 37  1  0
  4 38  1  0
  8 39  1  0
  8 40  1  0
  9 41  1  0
  9 42  1  0
 11 43  1  0
 12 44  1  0
 12 45  1  0
 16 46  1  0
 17 47  1  0
 18 48  1  0
 19 49  1  0
 21 50  1  0
 24 51  1  0
 25 52  1  0
 27 53  1  0
 33 54  1  0
 35 55  1  0
 36 56  1  0
 37 57  1  0
M  END
> <Name>
CHEMBL2087292

> <IC50 nM>
801

> <Molecule_ChEMBL_ID>
CHEMBL2087292

> <Smiles>
O=C(O)Cc1cc(Br)c(N(Cc2ccc(Oc3ccccc3Br)cc2)Cc2cc(F)cc(F)c2)c(Br)c1

$$$$
CHEMBL2087297
  SciTegic08162514323D

 65 68  0  0  0  0            999 V2000
   -2.5330   -0.9570   -0.6820 Br  0  0
   -2.9980    0.0230    0.8730 C   0  0
   -2.3280    1.2110    1.2730 C   0  0
   -4.0650   -0.4730    1.6500 C   0  0
   -1.2830    1.7070    0.5230 N   0  0
   -2.7440    1.8830    2.4570 C   0  0
   -4.4670    0.1930    2.8140 C   0  0
   -1.5550    2.3910   -0.7500 C   0  0
    0.1090    1.5650    0.9730 C   0  0
   -1.9260    3.4730    3.0880 Br  0  0
   -3.8110    1.3650    3.2150 C   0  0
   -5.5940   -0.3400    3.6250 C   0  0
   -1.7170    3.8560   -0.5610 C   0  0
    0.6890    0.2640    0.5550 C   0  0
   -6.9320    0.1190    3.1110 C   0  0
   -2.9940    4.3990   -0.3300 C   0  0
   -0.5940    4.7010   -0.6150 C   0  0
    0.6350   -0.8440    1.4200 C   0  0
    1.2930    0.1350   -0.7090 C   0  0
   -7.2250   -0.0020    1.9450 O   0  0
   -7.7350    0.6540    4.0250 O   0  0
   -3.1490    5.7830   -0.1520 C   0  0
   -0.7480    6.0880   -0.4340 C   0  0
    1.1840   -2.0740    1.0230 C   0  0
    1.8420   -1.0980   -1.1040 C   0  0
   -4.3580    6.2970    0.0640 F   0  0
   -2.0250    6.6290   -0.2030 C   0  0
    0.3140    6.8870   -0.4820 F   0  0
    1.7890   -2.2050   -0.2400 C   0  0
    2.3050   -3.3590   -0.6110 O   0  0
    3.4060   -3.3420   -1.3320 C   0  0
    3.5980   -4.2830   -2.3610 C   0  0
    4.3980   -2.3790   -1.0740 C   0  0
    2.6740   -5.1910   -2.6110 O   0  0
    4.7770   -4.2560   -3.1250 C   0  0
    5.5760   -2.3540   -1.8400 C   0  0
    2.0000   -5.7770   -1.5080 C   0  0
    5.7700   -3.2930   -2.8670 C   0  0
    6.8750   -3.2720   -3.5840 O   0  0
    7.8090   -2.2300   -3.3380 C   0  0
   -4.5840   -1.3750    1.3570 H   0  0
   -2.4610    1.9790   -1.1930 H   0  0
   -0.7310    2.2030   -1.4390 H   0  0
    0.7050    2.3790    0.5590 H   0  0
    0.1430    1.6470    2.0610 H   0  0
   -4.1370    1.8630    4.1170 H   0  0
   -5.4710   -0.0350    4.6640 H   0  0
   -5.5530   -1.4300    3.6290 H   0  0
   -3.8580    3.7500   -0.2870 H   0  0
    0.3870    4.2870   -0.7930 H   0  0
    0.1720   -0.7520    2.3930 H   0  0
    1.3380    0.9820   -1.3790 H   0  0
   -8.6080    0.9710    3.7600 H   0  0
    1.1410   -2.9220    1.6910 H   0  0
    2.3050   -1.1890   -2.0760 H   0  0
   -2.1430    7.6940   -0.0660 H   0  0
    4.2540   -1.6540   -0.2850 H   0  0
    4.9240   -4.9790   -3.9140 H   0  0
    6.3340   -1.6110   -1.6350 H   0  0
    1.6070   -6.7830   -1.6540 H   0  0
    1.1660   -5.1310   -1.2340 H   0  0
    2.6890   -5.8070   -0.6640 H   0  0
    8.6680   -2.3810   -3.9920 H   0  0
    7.2910   -1.2770   -3.4320 H   0  0
    8.1560   -2.3220   -2.3090 H   0  0
  1  2  1  0
  2  3  2  0
  2  4  1  0
  3  5  1  0
  3  6  1  0
  4  7  2  0
  5  8  1  0
  5  9  1  0
  6 10  1  0
  6 11  2  0
  7 12  1  0
  8 13  1  0
  9 14  1  0
 12 15  1  0
 13 16  2  0
 13 17  1  0
 14 18  2  0
 14 19  1  0
 15 20  2  0
 15 21  1  0
 16 22  1  0
 17 23  2  0
 18 24  1  0
 19 25  2  0
 22 26  1  0
 22 27  2  0
 23 28  1  0
 24 29  2  0
 29 30  1  0
 30 31  1  0
 31 32  2  0
 31 33  1  0
 32 34  1  0
 32 35  1  0
 33 36  2  0
 34 37  1  0
 35 38  2  0
 38 39  1  0
 39 40  1  0
  7 11  1  0
 23 27  1  0
 25 29  1  0
 36 38  1  0
  4 41  1  0
  8 42  1  0
  8 43  1  0
  9 44  1  0
  9 45  1  0
 11 46  1  0
 12 47  1  0
 12 48  1  0
 16 49  1  0
 17 50  1  0
 18 51  1  0
 19 52  1  0
 21 53  1  0
 24 54  1  0
 25 55  1  0
 27 56  1  0
 33 57  1  0
 35 58  1  0
 36 59  1  0
 37 60  1  0
 37 61  1  0
 37 62  1  0
 40 63  1  0
 40 64  1  0
 40 65  1  0
M  END
> <Name>
CHEMBL2087297

> <IC50 nM>
1601

> <Molecule_ChEMBL_ID>
CHEMBL2087297

> <Smiles>
COc1ccc(Oc2ccc(CN(Cc3cc(F)cc(F)c3)c3c(Br)cc(CC(=O)O)cc3Br)cc2)c(OC)c1

$$$$
CHEMBL1094208
  SciTegic08162514323D

 42 45  0  0  1  0            999 V2000
   -1.3050   -0.5470    2.5200 Cl  0  0
   -1.7930   -2.1390    2.0570 C   0  0
   -1.6270   -3.2420    2.9340 C   0  0
   -2.3670   -2.3460    0.7810 C   0  0
   -0.9350   -3.0860    4.5040 Cl  0  0
   -2.0370   -4.5270    2.5260 C   0  0
   -2.7690   -3.6350    0.3890 C   0  0
   -2.5600   -1.2230   -0.1780 C   0  0  1  0  0  0
   -2.6050   -4.7210    1.2580 C   0  0
   -3.5920   -0.3810    0.2890 O   0  0
   -1.3120   -0.4510   -0.2890 C   0  0
   -3.0390   -1.7210   -1.5410 C   0  0
   -0.0640   -1.1290   -0.3180 C   0  0
   -1.3610    0.9670   -0.3670 C   0  0
   -3.0920   -0.6700   -2.4200 F   0  0
   -4.2870   -2.2730   -1.4140 F   0  0
   -2.1660   -2.6680   -2.0140 F   0  0
    1.1330   -0.3730   -0.4260 C   0  0
   -0.1620    1.7150   -0.4740 C   0  0
    1.0610    1.0040   -0.5000 C   0  0
    2.3850   -0.9630   -0.4630 C   0  0
    2.3670    1.3590   -0.5900 N   0  0
    3.1170    0.2030   -0.5660 N   0  0
    2.8650    2.6190   -0.6870 C   0  0
    3.8830    2.9080   -1.6190 C   0  0
    2.3650    3.6430    0.1410 C   0  0
    4.3970    4.2110   -1.7190 C   0  0
    2.8810    4.9450    0.0390 C   0  0
    3.8970    5.2310   -0.8880 C   0  0
    4.3850    6.4670   -0.9840 F   0  0
   -1.9200   -5.3790    3.1800 H   0  0
   -3.2090   -3.7950   -0.5860 H   0  0
   -2.9180   -5.7090    0.9510 H   0  0
   -3.3570   -0.1130    1.1920 H   0  0
   -0.0330   -2.2070   -0.2600 H   0  0
   -2.3100    1.4820   -0.3460 H   0  0
   -0.1850    2.7930   -0.5330 H   0  0
    2.7360   -1.9840   -0.4240 H   0  0
    4.2790    2.1370   -2.2640 H   0  0
    1.5840    3.4430    0.8620 H   0  0
    5.1780    4.4280   -2.4330 H   0  0
    2.4940    5.7270    0.6780 H   0  0
  1  2  1  0
  2  3  2  0
  2  4  1  0
  3  5  1  0
  3  6  1  0
  4  7  2  0
  4  8  1  0
  6  9  2  0
  8 10  1  0
  8 11  1  0
  8 12  1  0
 11 13  2  0
 11 14  1  0
 12 15  1  0
 12 16  1  0
 12 17  1  0
 13 18  1  0
 14 19  2  0
 18 20  2  0
 18 21  1  0
 20 22  1  0
 21 23  2  0
 22 24  1  0
 24 25  2  0
 24 26  1  0
 25 27  1  0
 26 28  2  0
 27 29  2  0
 29 30  1  0
  7  9  1  0
 19 20  1  0
 22 23  1  0
 28 29  1  0
  6 31  1  0
  7 32  1  0
  9 33  1  0
 10 34  1  0
 13 35  1  0
 14 36  1  0
 19 37  1  0
 21 38  1  0
 25 39  1  0
 26 40  1  0
 27 41  1  0
 28 42  1  0
M  END
> <Name>
CHEMBL1094208

> <IC50 nM>
87

> <Molecule_ChEMBL_ID>
CHEMBL1094208

> <Smiles>
OC(c1ccc2c(cnn2-c2ccc(F)cc2)c1)(c1cccc(Cl)c1Cl)C(F)(F)F

$$$$
CHEMBL359515
  SciTegic08162514323D

 73 76  0  0  0  0            999 V2000
    3.4530   -3.5960    2.3440 S   0  0
    2.3870   -3.0180    3.1430 O   0  0
    3.1620   -4.9470    1.8960 O   0  0
    3.6290   -2.6740    1.0250 N   0  0
    4.9550   -3.6210    3.3140 C   0  0
    2.5880   -2.5310    0.1430 C   0  0
    2.7170   -1.7420   -1.0270 C   0  0
    1.3730   -3.1880    0.4140 C   0  0
    1.6210   -1.6190   -1.9120 C   0  0
    4.0060   -1.0430   -1.3220 C   0  0
    0.2890   -3.0630   -0.4670 C   0  0
    1.7070   -0.8650   -3.0550 N   0  0
    0.4100   -2.2810   -1.6270 C   0  0
    1.8240    0.6000   -2.9880 C   0  0
    1.6840   -1.5180   -4.3710 C   0  0
    1.2110    1.1410   -1.7480 C   0  0
    2.4750   -2.7770   -4.3710 C   0  0
    2.0140    1.7750   -0.7830 C   0  0
   -0.1740    1.0190   -1.5370 C   0  0
    1.8170   -4.0220   -4.3710 C   0  0
    3.8790   -2.7270   -4.3710 C   0  0
    1.4320    2.2870    0.3890 C   0  0
   -0.7540    1.5310   -0.3630 C   0  0
    2.5630   -5.2110   -4.3710 C   0  0
    4.6250   -3.9180   -4.3710 C   0  0
    0.0470    2.1680    0.6010 C   0  0
    3.9670   -5.1600   -4.3710 C   0  0
   -0.4980    2.6480    1.7010 O   0  0
   -1.6840    3.2150    1.6070 C   0  0
   -2.6370    3.0310    2.6250 C   0  0
   -2.0020    4.0040    0.4900 C   0  0
   -3.9040    3.6330    2.5290 C   0  0
   -3.2680    4.6090    0.3910 C   0  0
   -4.7950    3.4590    3.4840 O   0  0
   -4.2170    4.4220    1.4080 C   0  0
   -6.0610    4.0880    3.3400 C   0  0
   -6.9360    3.7600    4.5490 C   0  0
   -8.1820    4.3960    4.3790 O   0  0
   -9.0720    4.1660    5.4450 C   0  0
    4.4980   -2.2070    0.8530 H   0  0
    4.8950   -4.2290    4.2170 H   0  0
    5.2110   -2.6040    3.6130 H   0  0
    5.7740   -4.0060    2.7070 H   0  0
    1.2560   -3.7930    1.3030 H   0  0
    4.0760   -0.6410   -2.3340 H   0  0
    4.8360   -1.7340   -1.1820 H   0  0
    4.1390   -0.2150   -0.6250 H   0  0
   -0.6410   -3.5670   -0.2520 H   0  0
   -0.4370   -2.1990   -2.2910 H   0  0
    2.8790    0.8770   -3.0220 H   0  0
    1.3360    1.0390   -3.8580 H   0  0
    2.0900   -0.8360   -5.1170 H   0  0
    0.6520   -1.7360   -4.6450 H   0  0
    3.0780    1.8730   -0.9400 H   0  0
   -0.7970    0.5330   -2.2740 H   0  0
    0.7360   -4.0670   -4.3710 H   0  0
    4.3910   -1.7750   -4.3710 H   0  0
    2.0530    2.7730    1.1270 H   0  0
   -1.8180    1.4360   -0.2070 H   0  0
    2.0570   -6.1660   -4.3710 H   0  0
    5.7050   -3.8790   -4.3710 H   0  0
    4.5410   -6.0760   -4.3710 H   0  0
   -2.3940    2.4240    3.4840 H   0  0
   -1.2730    4.1480   -0.2950 H   0  0
   -3.5100    5.2170   -0.4710 H   0  0
   -5.1870    4.8890    1.3300 H   0  0
   -5.8980    5.1640    3.2620 H   0  0
   -6.5200    3.7250    2.4200 H   0  0
   -7.1090    2.6860    4.6170 H   0  0
   -6.4820    4.1370    5.4670 H   0  0
   -9.9860    4.7290    5.2520 H   0  0
   -9.1800    3.0880    5.5720 H   0  0
   -8.6230    4.5630    6.3550 H   0  0
  1  2  2  0
  1  3  2  0
  1  4  1  0
  1  5  1  0
  4  6  1  0
  6  7  2  0
  6  8  1  0
  7  9  1  0
  7 10  1  0
  8 11  2  0
  9 12  1  0
  9 13  2  0
 12 14  1  0
 12 15  1  0
 14 16  1  0
 15 17  1  0
 16 18  2  0
 16 19  1  0
 17 20  2  0
 17 21  1  0
 18 22  1  0
 19 23  2  0
 20 24  1  0
 21 25  2  0
 22 26  2  0
 24 27  2  0
 26 28  1  0
 28 29  1  0
 29 30  2  0
 29 31  1  0
 30 32  1  0
 31 33  2  0
 32 34  1  0
 32 35  2  0
 34 36  1  0
 36 37  1  0
 37 38  1  0
 38 39  1  0
 11 13  1  0
 23 26  1  0
 25 27  1  0
 33 35  1  0
  4 40  1  0
  5 41  1  0
  5 42  1  0
  5 43  1  0
  8 44  1  0
 10 45  1  0
 10 46  1  0
 10 47  1  0
 11 48  1  0
 13 49  1  0
 14 50  1  0
 14 51  1  0
 15 52  1  0
 15 53  1  0
 18 54  1  0
 19 55  1  0
 20 56  1  0
 21 57  1  0
 22 58  1  0
 23 59  1  0
 24 60  1  0
 25 61  1  0
 27 62  1  0
 30 63  1  0
 31 64  1  0
 33 65  1  0
 35 66  1  0
 36 67  1  0
 36 68  1  0
 37 69  1  0
 37 70  1  0
 39 71  1  0
 39 72  1  0
 39 73  1  0
M  END
> <Name>
CHEMBL359515

> <IC50 nM>
2.4

> <Molecule_ChEMBL_ID>
CHEMBL359515

> <Smiles>
COCCOc1cccc(Oc2ccc(CN(Cc3ccccc3)c3cccc(NS(C)(=O)=O)c3C)cc2)c1

$$$$
CHEMBL3666807
  SciTegic08162514323D

 76 81  0  0  1  0            999 V2000
    1.5490    0.9220   -7.4790 F   0  0
    2.8120    0.4060   -7.3420 C   0  0
    3.7070    1.4300   -7.1600 F   0  0
    2.8670   -0.5530   -6.1820 C   0  0
    3.1820   -0.3770   -8.6020 C   0  0
    3.7440   -0.4780   -5.3540 O   0  0
    1.9020   -1.5140   -6.0820 N   0  0
    1.9390   -2.4590   -4.9550 C   0  0  2  0  0  0
    1.7010   -1.7380   -3.6290 C   0  0  2  0  0  0
    3.2360   -3.2690   -4.9650 C   0  0
    1.7710   -2.6760   -2.5620 O   0  0
    0.3940   -1.0660   -3.6040 C   0  0
    1.5570   -2.2280   -1.3180 C   0  0
   -0.7890   -1.8260   -3.4430 C   0  0
    0.3180    0.3420   -3.7420 C   0  0
    1.1290   -3.1310   -0.3090 C   0  0
    1.7580   -0.8550   -1.0140 C   0  0
   -2.0470   -1.1800   -3.4240 C   0  0
   -0.9380    0.9920   -3.7090 C   0  0
    0.9020   -2.6460    1.0080 C   0  0
    1.5330   -0.3770    0.3010 C   0  0
   -3.1800   -1.9040   -3.3010 O   0  0
   -2.1190    0.2360   -3.5330 C   0  0
    1.1050   -1.3050    1.2770 C   0  0
    0.4840   -3.4650    2.0430 C   0  0
   -4.4450   -1.2910   -3.5740 C   0  0
   -3.3170    0.8580   -3.4710 O   0  0
    0.7970   -1.2280    2.5980 N   0  0
    0.4410   -2.4900    3.0180 N   0  0
   -4.4610    0.1370   -3.0000 C   0  0
    0.8280   -0.1170    3.3770 C   0  0
   -0.2130    0.1350    4.2930 C   0  0
    1.9020    0.7870    3.2740 C   0  0
   -0.1780    1.2870    5.1000 C   0  0
    1.9350    1.9380    4.0800 C   0  0
   -1.2830    1.5550    6.0700 C   0  0
    0.8960    2.1880    4.9920 C   0  0
   -2.3910    1.1080    5.8870 O   0  0
   -1.0180    2.3150    7.1740 N   0  0
   -2.0980    2.5880    8.1410 C   0  0  1  0  0  0
   -1.6330    3.3110    9.4030 C   0  0
   -3.1390    3.5920    7.6470 C   0  0
   -2.8070    3.8830    9.9380 O   0  0
   -3.8220    3.9590    8.9610 C   0  0
    3.1970    0.2600   -9.4860 H   0  0
    2.4670   -1.1780   -8.7810 H   0  0
    4.1700   -0.8280   -8.4980 H   0  0
    1.1760   -1.5740   -6.7680 H   0  0
    1.1890   -3.2340   -5.1130 H   0  0
    2.4920   -1.0020   -3.4880 H   0  0
    3.4280   -3.6820   -5.9550 H   0  0
    4.0820   -2.6460   -4.6680 H   0  0
    3.1760   -4.1010   -4.2640 H   0  0
   -0.7360   -2.9000   -3.3380 H   0  0
    1.2190    0.9240   -3.8750 H   0  0
    0.9780   -4.1740   -0.5490 H   0  0
    2.0860   -0.1740   -1.7830 H   0  0
   -0.9880    2.0670   -3.8130 H   0  0
    1.6820    0.6660    0.5450 H   0  0
    0.2540   -4.5190    2.1210 H   0  0
   -4.5860   -1.2640   -4.6540 H   0  0
   -5.2350   -1.9100   -3.1480 H   0  0
   -5.3620    0.6820   -3.2850 H   0  0
   -4.4220    0.1060   -1.9100 H   0  0
   -1.0430   -0.5530    4.3810 H   0  0
    2.7110    0.6130    2.5780 H   0  0
    2.7600    2.6310    4.0000 H   0  0
    0.9300    3.0740    5.6100 H   0  0
   -0.0980    2.6800    7.3170 H   0  0
   -2.5740    1.6510    8.3990 H   0  0
   -0.9510    4.1210    9.1720 H   0  0
   -1.1660    2.6620   10.1310 H   0  0
   -2.6740    4.4630    7.2030 H   0  0
   -3.8240    3.1680    6.9260 H   0  0
   -4.5800    3.2330    9.2150 H   0  0
   -4.2700    4.9420    8.9510 H   0  0
  1  2  1  0
  2  3  1  0
  2  4  1  0
  2  5  1  0
  4  6  2  0
  4  7  1  0
  7  8  1  0
  8  9  1  0
  8 10  1  0
  9 11  1  0
  9 12  1  0
 11 13  1  0
 12 14  2  0
 12 15  1  0
 13 16  2  0
 13 17  1  0
 14 18  1  0
 15 19  2  0
 16 20  1  0
 17 21  2  0
 18 22  1  0
 18 23  2  0
 20 24  2  0
 20 25  1  0
 22 26  1  0
 23 27  1  0
 24 28  1  0
 25 29  2  0
 26 30  1  0
 28 31  1  0
 31 32  2  0
 31 33  1  0
 32 34  1  0
 33 35  2  0
 34 36  1  0
 34 37  2  0
 36 38  2  0
 36 39  1  0
 40 39  1  0
 40 41  1  0
 40 42  1  0
 41 43  1  0
 42 44  1  0
 19 23  1  0
 21 24  1  0
 27 30  1  0
 28 29  1  0
 35 37  1  0
 43 44  1  0
  5 45  1  0
  5 46  1  0
  5 47  1  0
  7 48  1  0
  8 49  1  0
  9 50  1  0
 10 51  1  0
 10 52  1  0
 10 53  1  0
 14 54  1  0
 15 55  1  0
 16 56  1  0
 17 57  1  0
 19 58  1  0
 21 59  1  0
 25 60  1  0
 26 61  1  0
 26 62  1  0
 30 63  1  0
 30 64  1  0
 32 65  1  0
 33 66  1  0
 35 67  1  0
 37 68  1  0
 39 69  1  0
 40 70  1  0
 41 71  1  0
 41 72  1  0
 42 73  1  0
 42 74  1  0
 44 75  1  0
 44 76  1  0
M  END
> <Name>
CHEMBL3666807

> <IC50 nM>
0.06

> <Molecule_ChEMBL_ID>
CHEMBL3666807

> <Smiles>
C[C@H](NC(=O)C(C)(F)F)[C@H](Oc1ccc2c(cnn2-c2cccc(C(=O)N[C@@H]3CCOC3)c2)c1)c1ccc2c(c1)OCCO2

$$$$
CHEMBL2022658
  SciTegic08162514323D

 83 89  0  0  1  0            999 V2000
    8.0860    0.3980   -0.3380 S   0  0
    8.3850    0.7970   -1.9510 C   0  0
    6.7810   -0.7600   -0.4650 C   0  0
    9.6390    1.2520   -2.2460 N   0  0
    7.4140    0.6780   -2.9690 C   0  0
    5.4610   -0.0450   -0.3480 C   0  0
    9.9670    1.5960   -3.5250 C   0  0
    7.7360    1.0290   -4.2910 C   0  0
    5.4140    1.1330   -0.0800 O   0  0
    4.1990   -0.8440   -0.5760 C   0  0  2  0  0  0
    9.0290    1.4940   -4.5720 C   0  0
    4.0080   -0.9120   -1.9800 O   0  0
    2.9360   -0.2660    0.1020 C   0  0  2  0  0  0
    4.2620   -2.2810    0.0000 C   0  0
    2.0120   -1.5020    0.0100 C   0  0  1  0  0  0
    2.2520    0.9860   -0.4960 C   0  0
    3.3140    0.0270    1.5670 C   0  0
    2.8830   -2.6060    0.5980 C   0  0
    0.6600   -1.1060    0.6150 C   0  0  1  0  0  0
    0.9360    0.6600   -1.2320 C   0  0  1  0  0  0
   -0.0920   -0.2070   -0.4100 C   0  0  2  0  0  0
   -0.2150   -2.2890    1.0080 C   0  0
    0.4060    1.8630   -1.7460 O   0  0
   -1.3500    0.4530    0.2600 C   0  0  2  0  0  0
   -1.4530   -1.7700    1.7360 C   0  0
   -2.1620   -0.6230    1.0310 C   0  0
   -2.2130    1.2320   -0.8050 C   0  0
   -0.8830    1.4610    1.3200 C   0  0
   -3.5100   -0.5760    1.1290 C   0  0
   -3.6910    1.3630   -0.4750 C   0  0
   -4.2460    0.4760    0.4240 C   0  0
   -4.5680    2.3010   -1.0160 C   0  0
   -5.5470    0.8570    0.4320 N   0  0
   -5.7210    1.9180   -0.4000 N   0  0
   -6.6130    0.2230    1.2210 C   0  0
   -7.7440   -0.2810    0.3050 C   0  0
   -7.1510    1.1930    2.2910 C   0  0
   -8.8930   -0.9020    1.1130 C   0  0
   -8.3050    0.5700    3.0920 C   0  0
   -9.4280    0.0700    2.1740 C   0  0
    6.8420   -1.2720   -1.4260 H   0  0
    6.8730   -1.5000    0.3300 H   0  0
    6.4240    0.3180   -2.7320 H   0  0
   10.9630    1.9530   -3.7400 H   0  0
    7.0000    0.9410   -5.0760 H   0  0
    9.3050    1.7690   -5.5800 H   0  0
    4.7320   -1.4470   -2.3420 H   0  0
    5.0060   -2.3580    0.7790 H   0  0
    4.5390   -3.0100   -0.7500 H   0  0
    1.8260   -1.7870   -1.0170 H   0  0
    2.9450    1.5060   -1.1580 H   0  0
    2.0210    1.6970    0.2990 H   0  0
    3.8570   -0.8010    2.0200 H   0  0
    2.4220    0.2090    2.1660 H   0  0
    3.9450    0.9140    1.6310 H   0  0
    2.9020   -2.5550    1.6760 H   0  0
    2.5350   -3.5880    0.3180 H   0  0
    0.8460   -0.5370    1.5270 H   0  0
    1.2110    0.0880   -2.1190 H   0  0
   -0.5100   -0.8850   -1.1580 H   0  0
   -0.5020   -2.8580    0.1230 H   0  0
    0.3320   -2.9730    1.6600 H   0  0
    1.0430    2.2010   -2.3960 H   0  0
   -1.1620   -1.4260    2.7310 H   0  0
   -2.1390   -2.6040    1.8950 H   0  0
   -2.1500    0.7320   -1.7730 H   0  0
   -1.8420    2.2460   -0.9470 H   0  0
   -1.7250    2.0370    1.7010 H   0  0
   -0.3970    0.9470    2.1510 H   0  0
   -0.1640    2.1620    0.8950 H   0  0
   -4.0490   -1.3030    1.7210 H   0  0
   -4.4280    3.1090   -1.7210 H   0  0
   -6.1780   -0.6390    1.7310 H   0  0
   -8.1390    0.5430   -0.2930 H   0  0
   -7.3610   -1.0200   -0.4020 H   0  0
   -6.3520    1.4860    2.9750 H   0  0
   -7.5060    2.1110    1.8200 H   0  0
   -8.5410   -1.8130    1.6020 H   0  0
   -9.7010   -1.2010    0.4430 H   0  0
   -7.9220   -0.2640    3.6840 H   0  0
   -8.6990    1.2970    3.8030 H   0  0
  -10.2050   -0.4120    2.7640 H   0  0
   -9.8950    0.9220    1.6800 H   0  0
  1  2  1  0
  1  3  1  0
  2  4  2  0
  2  5  1  0
  3  6  1  0
  4  7  1  0
  5  8  2  0
  6  9  2  0
  6 10  1  0
  7 11  2  0
 10 12  1  0
 10 13  1  0
 10 14  1  0
 13 15  1  0
 13 16  1  0
 13 17  1  0
 14 18  1  0
 15 19  1  0
 16 20  1  0
 21 19  1  0
 19 22  1  0
 20 23  1  0
 21 24  1  0
 22 25  1  0
 24 26  1  0
 24 27  1  0
 24 28  1  0
 26 29  2  0
 27 30  1  0
 29 31  1  0
 30 32  1  0
 31 33  1  0
 32 34  2  0
 33 35  1  0
 35 36  1  0
 35 37  1  0
 36 38  1  0
 37 39  1  0
 38 40  1  0
  8 11  1  0
 15 18  1  0
 20 21  1  0
 25 26  1  0
 30 31  2  0
 33 34  1  0
 39 40  1  0
  3 41  1  0
  3 42  1  0
  5 43  1  0
  7 44  1  0
  8 45  1  0
 11 46  1  0
 12 47  1  0
 14 48  1  0
 14 49  1  0
 15 50  1  0
 16 51  1  0
 16 52  1  0
 17 53  1  0
 17 54  1  0
 17 55  1  0
 18 56  1  0
 18 57  1  0
 19 58  1  0
 20 59  1  0
 21 60  1  0
 22 61  1  0
 22 62  1  0
 23 63  1  0
 25 64  1  0
 25 65  1  0
 27 66  1  0
 27 67  1  0
 28 68  1  0
 28 69  1  0
 28 70  1  0
 29 71  1  0
 32 72  1  0
 35 73  1  0
 36 74  1  0
 36 75  1  0
 37 76  1  0
 37 77  1  0
 38 78  1  0
 38 79  1  0
 39 80  1  0
 39 81  1  0
 40 82  1  0
 40 83  1  0
M  END
> <Name>
CHEMBL2022658

> <IC50 nM>
4.4

> <Molecule_ChEMBL_ID>
CHEMBL2022658

> <Smiles>
C[C@]12Cc3cnn(C4CCCCC4)c3C=C1CC[C@@H]1[C@@H]2[C@@H](O)C[C@@]2(C)[C@H]1CC[C@]2(O)C(=O)CSc1ccccn1

$$$$
CHEMBL464245
  SciTegic08162514323D

 58 60  0  0  1  0            999 V2000
   -2.4790    0.4400   -2.0570 F   0  0
   -1.2620   -0.0550   -2.2740 C   0  0
   -0.1370    0.7950   -2.3240 C   0  0
   -1.1040   -1.4410   -2.4510 C   0  0
    1.1430    0.2480   -2.5570 C   0  0
   -0.3010    2.2700   -2.1350 C   0  0
    0.1720   -1.9820   -2.6840 C   0  0
    2.2170    1.0330   -2.6070 F   0  0
    1.2930   -1.1390   -2.7360 C   0  0
   -1.2720    2.8480   -2.5660 O   0  0
    0.6680    2.9550   -1.4610 N   0  0
    1.3750    2.3650   -0.3140 C   0  0
    1.0160    4.3190   -1.8870 C   0  0
    0.9690    3.0490    0.9900 C   0  0  2  0  0  0
    1.2460    4.3790   -3.3990 C   0  0
   -0.4360    3.1700    1.0080 O   0  0
    1.5720    4.4470    1.1370 C   0  0
    1.3970    2.2600    2.2290 C   0  0
    0.0980    4.7990   -4.0180 F   0  0
    0.7730    5.3600    0.4980 F   0  0
    2.8240    4.4650    0.5780 F   0  0
    1.6600    4.7700    2.4670 F   0  0
    0.7050    0.9630    2.2890 N   0  0
    1.4120   -0.1580    2.6190 C   0  0
    2.5960   -0.0860    2.8590 O   0  0
    0.7300   -1.4450    2.6820 C   0  0
   -0.2360   -1.9320    1.7700 C   0  0
    0.9240   -2.4340    3.6700 C   0  0
   -0.5880   -3.1620    2.2230 N   0  0
   -0.7400   -1.2210    0.5780 N   0  0
    0.1000   -3.4410    3.3360 N   0  0
   -1.4920   -4.0020    1.6560 C   0  0
   -2.5080   -4.5800    2.4410 C   0  0
   -1.4200   -4.2950    0.2810 C   0  0
   -3.4450   -5.4490    1.8540 C   0  0
   -2.3560   -5.1640   -0.3050 C   0  0
   -3.3690   -5.7400    0.4800 C   0  0
   -4.2560   -6.5620   -0.0760 F   0  0
   -1.9650   -2.0940   -2.4100 H   0  0
    0.2890   -3.0470   -2.8200 H   0  0
    2.2720   -1.5590   -2.9160 H   0  0
    1.1600    1.2970   -0.2730 H   0  0
    2.4490    2.4490   -0.4770 H   0  0
    1.9040    4.6470   -1.3500 H   0  0
    0.2190    5.0020   -1.5920 H   0  0
    1.5200    3.3910   -3.7700 H   0  0
    2.0610    5.0630   -3.6370 H   0  0
   -0.8010    2.2850    0.8590 H   0  0
    2.4730    2.0920    2.2270 H   0  0
    1.1840    2.8220    3.1370 H   0  0
   -0.2710    0.8950    2.0920 H   0  0
    1.5820   -2.4240    4.5290 H   0  0
   -0.2300   -0.4430    0.2070 H   0  0
   -1.5880   -1.5180    0.1410 H   0  0
   -2.5820   -4.3690    3.5000 H   0  0
   -0.6480   -3.8610   -0.3400 H   0  0
   -4.2210   -5.8910    2.4610 H   0  0
   -2.2950   -5.3850   -1.3610 H   0  0
  1  2  1  0
  2  3  2  0
  2  4  1  0
  3  5  1  0
  3  6  1  0
  4  7  2  0
  5  8  1  0
  5  9  2  0
  6 10  2  0
  6 11  1  0
 11 12  1  0
 11 13  1  0
 12 14  1  0
 13 15  1  0
 14 16  1  0
 14 17  1  0
 14 18  1  0
 15 19  1  0
 17 20  1  0
 17 21  1  0
 17 22  1  0
 18 23  1  0
 23 24  1  0
 24 25  2  0
 24 26  1  0
 26 27  2  0
 26 28  1  0
 27 29  1  0
 27 30  1  0
 28 31  2  0
 29 32  1  0
 32 33  2  0
 32 34  1  0
 33 35  1  0
 34 36  2  0
 35 37  2  0
 37 38  1  0
  7  9  1  0
 29 31  1  0
 36 37  1  0
  4 39  1  0
  7 40  1  0
  9 41  1  0
 12 42  1  0
 12 43  1  0
 13 44  1  0
 13 45  1  0
 15 46  1  0
 15 47  1  0
 16 48  1  0
 18 49  1  0
 18 50  1  0
 23 51  1  0
 28 52  1  0
 30 53  1  0
 30 54  1  0
 33 55  1  0
 34 56  1  0
 35 57  1  0
 36 58  1  0
M  END
> <Name>
CHEMBL464245

> <IC50 nM>
19.95

> <Molecule_ChEMBL_ID>
CHEMBL464245

> <Smiles>
Nc1c(C(=O)NCC(O)(CN(CCF)C(=O)c2c(F)cccc2F)C(F)(F)F)cnn1-c1ccc(F)cc1

$$$$
CHEMBL190225
  SciTegic08162514323D

 69 72  0  0  0  0            999 V2000
    2.4630    5.4380    0.1150 S   0  0
    3.7240    5.4650    0.8320 O   0  0
    2.5740    4.8730   -1.2190 O   0  0
    1.4450    4.4980    0.9570 N   0  0
    1.8340    7.1070   -0.0140 C   0  0
    1.7790    3.1950    1.2280 C   0  0
    0.9510    2.3770    2.0350 C   0  0
    2.9710    2.6740    0.6910 C   0  0
    1.3320    1.0390    2.2930 C   0  0
   -0.3170    2.9240    2.6110 C   0  0
    3.3420    1.3460    0.9510 C   0  0
    0.5550    0.2150    3.0700 N   0  0
    2.5250    0.5310    1.7500 C   0  0
   -0.7210   -0.3160    2.5680 C   0  0
    0.9960   -0.1480    4.4260 C   0  0
   -0.5900   -0.8380    1.1830 C   0  0
    1.7850   -1.4060    4.4260 C   0  0
   -0.9850   -0.0450    0.0940 C   0  0
   -0.0690   -2.1250    0.9630 C   0  0
    1.1270   -2.6500    4.4260 C   0  0
    3.1910   -1.3570    4.4260 C   0  0
   -0.8620   -0.5370   -1.2170 C   0  0
    0.0550   -2.6170   -0.3500 C   0  0
    1.8750   -3.8420    4.4260 C   0  0
    3.9370   -2.5490    4.4260 C   0  0
   -0.3400   -1.8240   -1.4420 C   0  0
    3.2790   -3.7890    4.4260 C   0  0
   -0.2250   -2.2870   -2.6700 O   0  0
   -1.1640   -1.9770   -3.5410 C   0  0
   -0.8300   -1.7170   -4.8810 C   0  0
   -2.5080   -1.9000   -3.1310 C   0  0
   -1.8340   -1.3870   -5.8090 C   0  0
   -3.5120   -1.5700   -4.0590 C   0  0
   -3.1760   -1.3110   -5.4010 C   0  0
   -4.1170   -1.0000   -6.2700 O   0  0
   -5.4160   -1.5370   -6.0670 C   0  0
   -5.3230   -3.0330   -5.9200 C   0  0
   -5.7070   -3.5840   -4.9160 O   0  0
   -4.7990   -3.6720   -6.9630 O   0  0
    0.5720    4.8690    1.2770 H   0  0
    1.7850    7.6430    0.9330 H   0  0
    0.8300    7.0860   -0.4380 H   0  0
    2.4690    7.6820   -0.6900 H   0  0
    3.6150    3.2850    0.0740 H   0  0
   -0.1370    3.9300    2.9960 H   0  0
   -1.1000    2.8960    1.8530 H   0  0
   -0.6370    2.3010    3.4450 H   0  0
    4.2580    0.9510    0.5350 H   0  0
    2.8320   -0.4900    1.9350 H   0  0
   -1.4710    0.4730    2.5920 H   0  0
   -1.0590   -1.1170    3.2280 H   0  0
    0.1230   -0.2660    5.0660 H   0  0
    1.6010    0.6620    4.8340 H   0  0
   -1.3850    0.9450    0.2560 H   0  0
    0.2360   -2.7400    1.7950 H   0  0
    0.0490   -2.6950    4.4260 H   0  0
    3.7030   -0.4060    4.4260 H   0  0
   -1.1660    0.0760   -2.0530 H   0  0
    0.4550   -3.6060   -0.5140 H   0  0
    1.3690   -4.7950    4.4260 H   0  0
    5.0160   -2.5100    4.4260 H   0  0
    3.8530   -4.7050    4.4260 H   0  0
    0.1990   -1.7740   -5.2010 H   0  0
   -2.7720   -2.1000   -2.1040 H   0  0
   -1.5710   -1.1880   -6.8360 H   0  0
   -4.5410   -1.5140   -3.7390 H   0  0
   -6.0280   -1.2870   -6.9340 H   0  0
   -5.8280   -1.1020   -5.1570 H   0  0
   -4.5160   -3.1640   -7.7350 H   0  0
  1  2  2  0
  1  3  2  0
  1  4  1  0
  1  5  1  0
  4  6  1  0
  6  7  2  0
  6  8  1  0
  7  9  1  0
  7 10  1  0
  8 11  2  0
  9 12  1  0
  9 13  2  0
 12 14  1  0
 12 15  1  0
 14 16  1  0
 15 17  1  0
 16 18  2  0
 16 19  1  0
 17 20  2  0
 17 21  1  0
 18 22  1  0
 19 23  2  0
 20 24  1  0
 21 25  2  0
 22 26  2  0
 24 27  2  0
 26 28  1  0
 28 29  1  0
 29 30  2  0
 29 31  1  0
 30 32  1  0
 31 33  2  0
 32 34  2  0
 34 35  1  0
 35 36  1  0
 36 37  1  0
 37 38  2  0
 37 39  1  0
 11 13  1  0
 23 26  1  0
 25 27  1  0
 33 34  1  0
  4 40  1  0
  5 41  1  0
  5 42  1  0
  5 43  1  0
  8 44  1  0
 10 45  1  0
 10 46  1  0
 10 47  1  0
 11 48  1  0
 13 49  1  0
 14 50  1  0
 14 51  1  0
 15 52  1  0
 15 53  1  0
 18 54  1  0
 19 55  1  0
 20 56  1  0
 21 57  1  0
 22 58  1  0
 23 59  1  0
 24 60  1  0
 25 61  1  0
 27 62  1  0
 30 63  1  0
 31 64  1  0
 32 65  1  0
 33 66  1  0
 36 67  1  0
 36 68  1  0
 39 69  1  0
M  END
> <Name>
CHEMBL190225

> <IC50 nM>
5.4

> <Molecule_ChEMBL_ID>
CHEMBL190225

> <Smiles>
Cc1c(NS(C)(=O)=O)cccc1N(Cc1ccccc1)Cc1ccc(Oc2ccc(OCC(=O)O)cc2)cc1

$$$$
CHEMBL1928881
  SciTegic08162514323D

 38 41  0  0  0  0            999 V2000
   -5.7950   -2.1250    0.8340 O   0  0
   -4.9160   -1.2950    0.7760 C   0  0
   -3.5960   -1.6780    0.8340 N   0  0
   -5.2580    0.1760    0.6230 C   0  0
   -2.5940   -0.7700    0.8070 C   0  0
   -4.1720    1.0550    0.9490 O   0  0
   -2.8930    0.6270    0.8710 C   0  0
   -1.2380   -1.1910    0.7250 C   0  0
   -1.8480    1.5860    0.8690 C   0  0
   -0.2280   -0.2070    0.7170 C   0  0
   -0.4980    1.1740    0.7890 C   0  0
    1.1860   -0.6480    0.6310 C   0  0
    2.1520   -0.2010   -0.1950 N   0  0
    1.6900   -1.6540    1.4750 C   0  0
    3.2600   -0.8970    0.0980 N   0  0
    2.0490    0.7640   -1.1460 C   0  0
    3.0450   -1.7890    1.0960 C   0  0
    3.0680    1.7250   -1.2910 C   0  0
    0.9240    0.8050   -1.9900 C   0  0
    4.1060   -2.7170    1.6450 C   0  0
    2.9610    2.7210   -2.2750 C   0  0
    0.8180    1.8050   -2.9750 C   0  0
    1.8360    2.7620   -3.1170 C   0  0
   -3.3850   -2.6560    0.9040 H   0  0
   -5.5430    0.3650   -0.4100 H   0  0
   -6.1110    0.4370    1.2500 H   0  0
   -0.9780   -2.2400    0.6700 H   0  0
   -2.0820    2.6410    0.9260 H   0  0
    0.3010    1.9020    0.7850 H   0  0
    1.1660   -2.2090    2.2420 H   0  0
    3.9420    1.7090   -0.6520 H   0  0
    0.1290    0.0780   -1.8960 H   0  0
    5.0530   -2.5250    1.1410 H   0  0
    4.1720   -2.5960    2.7270 H   0  0
    3.8240   -3.7520    1.4430 H   0  0
    3.7440    3.4570   -2.3850 H   0  0
   -0.0470    1.8360   -3.6210 H   0  0
    1.7560    3.5290   -3.8730 H   0  0
  1  2  2  0
  2  3  1  0
  2  4  1  0
  3  5  1  0
  4  6  1  0
  5  7  2  0
  5  8  1  0
  7  9  1  0
  8 10  2  0
  9 11  2  0
 10 12  1  0
 12 13  1  0
 12 14  2  0
 13 15  1  0
 13 16  1  0
 14 17  1  0
 16 18  2  0
 16 19  1  0
 17 20  1  0
 18 21  1  0
 19 22  2  0
 21 23  2  0
  6  7  1  0
 10 11  1  0
 15 17  2  0
 22 23  1  0
  3 24  1  0
  4 25  1  0
  4 26  1  0
  8 27  1  0
  9 28  1  0
 11 29  1  0
 14 30  1  0
 18 31  1  0
 19 32  1  0
 20 33  1  0
 20 34  1  0
 20 35  1  0
 21 36  1  0
 22 37  1  0
 23 38  1  0
M  END
> <Name>
CHEMBL1928881

> <IC50 nM>
10000

> <Molecule_ChEMBL_ID>
CHEMBL1928881

> <Smiles>
Cc1cc(-c2ccc3c(c2)NC(=O)CO3)n(-c2ccccc2)n1

$$$$
CHEMBL191423
  SciTegic08162514323D

 69 72  0  0  0  0            999 V2000
   -2.8340    4.5290    3.6990 S   0  0
   -4.2720    4.3770    3.5550 O   0  0
   -2.3380    4.0740    4.9860 O   0  0
   -2.1310    3.6210    2.5570 N   0  0
   -2.4120    6.2560    3.4940 C   0  0
   -0.7830    3.3730    2.6110 C   0  0
   -0.1680    2.4550    1.7270 C   0  0
   -0.0060    4.0530    3.5700 C   0  0
    1.2270    2.2270    1.8140 C   0  0
   -0.9860    1.7300    0.7070 C   0  0
    1.3750    3.8220    3.6520 C   0  0
    1.8590    1.3440    0.9770 N   0  0
    1.9900    2.9120    2.7790 C   0  0
    2.1890    1.7170   -0.4060 C   0  0
    2.2170    0.0000    1.4550 C   0  0
    3.3690    2.6210   -0.4630 C   0  0
    1.1740   -1.0000    1.1090 C   0  0
    3.2150    4.0100   -0.2850 C   0  0
    4.6470    2.0840   -0.6950 C   0  0
   -0.0200   -1.0570    1.8520 C   0  0
    1.3770   -1.8890    0.0390 C   0  0
    2.0100    4.5350   -0.0680 F   0  0
    4.3380    4.8540   -0.3380 C   0  0
    5.7700    2.9280   -0.7480 C   0  0
   -1.0060   -2.0040    1.5230 C   0  0
    0.3910   -2.8340   -0.2870 C   0  0
    5.6150    4.3130   -0.5680 C   0  0
   -0.8050   -2.8950    0.4530 C   0  0
    6.6780    5.1130   -0.6170 F   0  0
   -1.7290   -3.7810    0.1460 O   0  0
   -1.9340   -4.0450   -1.1270 C   0  0
   -2.2520   -5.3540   -1.5370 C   0  0
   -1.8360   -3.0220   -2.0860 C   0  0
   -2.4730   -5.6410   -2.8950 C   0  0
   -2.0570   -3.3030   -3.4430 C   0  0
   -2.7700   -6.8690   -3.2680 O   0  0
   -2.3730   -4.6110   -3.8500 C   0  0
   -2.9880   -7.1130   -4.6490 C   0  0
   -2.5800   -4.8710   -5.1390 F   0  0
   -3.3160   -8.5680   -4.8570 C   0  0
   -3.3650   -9.3340   -3.9240 O   0  0
   -3.5430   -8.9220   -6.1190 O   0  0
   -2.6800    3.2400    1.8130 H   0  0
   -2.8440    6.9140    4.2480 H   0  0
   -2.7520    6.6000    2.5180 H   0  0
   -1.3300    6.3710    3.5290 H   0  0
   -0.4590    4.7580    4.2540 H   0  0
   -1.5780    2.4470    0.1390 H   0  0
   -0.3300    1.1310    0.0740 H   0  0
   -1.6760    1.0510    1.2090 H   0  0
    1.9670    4.3460    4.3890 H   0  0
    3.0570    2.7500    2.8590 H   0  0
    1.3300    2.2130   -0.8590 H   0  0
    2.3950    0.8140   -0.9820 H   0  0
    2.3480    0.0290    2.5370 H   0  0
    3.1660   -0.2970    1.0120 H   0  0
    4.7720    1.0200   -0.8340 H   0  0
   -0.1840   -0.3770    2.6740 H   0  0
    2.2930   -1.8500   -0.5330 H   0  0
    4.2210    5.9200   -0.2010 H   0  0
    6.7480    2.5080   -0.9280 H   0  0
   -1.9200   -2.0450    2.0960 H   0  0
    0.5530   -3.5160   -1.1090 H   0  0
   -2.3280   -6.1410   -0.8010 H   0  0
   -1.5940   -2.0160   -1.7770 H   0  0
   -1.9790   -2.5120   -4.1760 H   0  0
   -2.0760   -6.8590   -5.1900 H   0  0
   -3.8220   -6.4940   -4.9790 H   0  0
   -3.7600   -9.8420   -6.3180 H   0  0
  1  2  2  0
  1  3  2  0
  1  4  1  0
  1  5  1  0
  4  6  1  0
  6  7  2  0
  6  8  1  0
  7  9  1  0
  7 10  1  0
  8 11  2  0
  9 12  1  0
  9 13  2  0
 12 14  1  0
 12 15  1  0
 14 16  1  0
 15 17  1  0
 16 18  2  0
 16 19  1  0
 17 20  2  0
 17 21  1  0
 18 22  1  0
 18 23  1  0
 19 24  2  0
 20 25  1  0
 21 26  2  0
 23 27  2  0
 25 28  2  0
 27 29  1  0
 28 30  1  0
 30 31  1  0
 31 32  2  0
 31 33  1  0
 32 34  1  0
 33 35  2  0
 34 36  1  0
 34 37  2  0
 36 38  1  0
 37 39  1  0
 38 40  1  0
 40 41  2  0
 40 42  1  0
 11 13  1  0
 24 27  1  0
 26 28  1  0
 35 37  1  0
  4 43  1  0
  5 44  1  0
  5 45  1  0
  5 46  1  0
  8 47  1  0
 10 48  1  0
 10 49  1  0
 10 50  1  0
 11 51  1  0
 13 52  1  0
 14 53  1  0
 14 54  1  0
 15 55  1  0
 15 56  1  0
 19 57  1  0
 20 58  1  0
 21 59  1  0
 23 60  1  0
 24 61  1  0
 25 62  1  0
 26 63  1  0
 32 64  1  0
 33 65  1  0
 35 66  1  0
 38 67  1  0
 38 68  1  0
 42 69  1  0
M  END
> <Name>
CHEMBL191423

> <IC50 nM>
4.8

> <Molecule_ChEMBL_ID>
CHEMBL191423

> <Smiles>
Cc1c(NS(C)(=O)=O)cccc1N(Cc1ccc(Oc2ccc(F)c(OCC(=O)O)c2)cc1)Cc1ccc(F)cc1F

$$$$
CHEMBL2419303
  SciTegic08162514323D

 36 39  0  0  0  0            999 V2000
    4.6560   -0.1740   -0.0120 F   0  0
    3.7500    0.5220    0.6740 C   0  0
    2.4630   -0.0040    0.9040 C   0  0
    4.0860    1.7930    1.1720 C   0  0
    2.0880   -1.3530    0.3770 C   0  0
    1.5220    0.7440    1.6330 C   0  0
    3.1430    2.5390    1.8980 C   0  0
    2.9100   -2.5530    0.4670 C   0  0
    0.9550   -1.6780   -0.2520 C   0  0
    1.8600    2.0140    2.1290 C   0  0
    3.4630    3.7440    2.3670 F   0  0
    4.0000   -2.5880    0.9880 O   0  0
    2.2810   -3.5880   -0.1040 O   0  0
   -0.1740   -0.7770   -0.5660 C   0  0
    1.0080   -3.1430   -0.6020 C   0  0
   -1.5000   -1.2660   -0.5040 C   0  0
    0.0780    0.5660   -0.9300 C   0  0
   -2.5900   -0.4040   -0.8010 C   0  0
   -1.0020    1.4280   -1.2250 C   0  0
   -3.8630   -0.8630   -0.7660 N   0  0
   -2.3320    0.9530   -1.1520 C   0  0
   -4.9370   -0.0120   -0.8950 C   0  0
   -3.3480    1.7970   -1.4300 O   0  0
   -6.0660   -0.4470   -0.8980 O   0  0
   -4.6870    1.4810   -1.0250 C   0  0
    5.0720    2.1970    0.9940 H   0  0
    0.5310    0.3500    1.8160 H   0  0
    1.1330    2.5820    2.6890 H   0  0
    0.9650   -3.2990   -1.6720 H   0  0
    0.2170   -3.6970   -0.1150 H   0  0
   -1.6760   -2.2970   -0.2290 H   0  0
    1.0900    0.9400   -0.9840 H   0  0
   -0.8080    2.4550   -1.5040 H   0  0
   -4.0430   -1.8420   -0.6480 H   0  0
   -5.3810    1.9280   -1.7380 H   0  0
   -4.8650    1.9510   -0.0590 H   0  0
  1  2  1  0
  2  3  2  0
  2  4  1  0
  3  5  1  0
  3  6  1  0
  4  7  2  0
  5  8  1  0
  5  9  2  0
  6 10  2  0
  7 11  1  0
  8 12  2  0
  8 13  1  0
  9 14  1  0
  9 15  1  0
 14 16  2  0
 14 17  1  0
 16 18  1  0
 17 19  2  0
 18 20  1  0
 18 21  2  0
 20 22  1  0
 21 23  1  0
 22 24  2  0
 22 25  1  0
  7 10  1  0
 13 15  1  0
 19 21  1  0
 23 25  1  0
  4 26  1  0
  6 27  1  0
 10 28  1  0
 15 29  1  0
 15 30  1  0
 16 31  1  0
 17 32  1  0
 19 33  1  0
 20 34  1  0
 25 35  1  0
 25 36  1  0
M  END
> <Name>
CHEMBL2419303

> <IC50 nM>
10000

> <Molecule_ChEMBL_ID>
CHEMBL2419303

> <Smiles>
O=C1COc2ccc(C3=C(c4ccc(F)cc4F)C(=O)OC3)cc2N1

$$$$
CHEMBL4524233
  SciTegic08162514323D

 67 72  0  0  1  0            999 V2000
    7.0660   -1.2620   -5.3770 F   0  0
    6.3090   -0.8710   -4.3550 C   0  0
    6.8930   -0.6050   -3.1050 C   0  0
    4.9200   -0.7230   -4.5290 C   0  0
    6.0920   -0.1910   -2.0270 C   0  0
    4.1170   -0.3090   -3.4510 C   0  0
    4.7010   -0.0410   -2.1970 C   0  0
    3.9260    0.3590   -1.1560 N   0  0
    4.2380    1.3710   -0.3050 N   0  0
    2.7280   -0.1800   -0.8070 C   0  0
    3.2990    1.5660    0.6600 C   0  0
    2.3930    0.5680    0.3090 C   0  0
    1.9040   -1.2640   -1.3670 C   0  0
    1.1050    0.2150    1.0430 C   0  0
    0.6440   -1.4160   -0.9000 C   0  0
    0.0160   -0.4300    0.0980 C   0  0  1  0  0  0
   -1.1490   -1.1640    0.8690 C   0  0  1  0  0  0
   -0.6090    0.7030   -0.7540 C   0  0
   -0.6500   -1.7770    2.0470 O   0  0
   -2.4160   -0.2950    1.1760 C   0  0
   -1.3480    1.7640    0.0840 C   0  0
   -2.0270    1.1840    1.3400 C   0  0
   -3.1740   -0.7620    2.4300 C   0  0
   -3.4100   -0.4080    0.0100 C   0  0
   -2.8710    0.0980    3.6060 C   0  0
   -2.7110   -0.4590   -1.3010 C   0  0
   -3.7170    1.1760    3.9240 C   0  0
   -1.7400   -0.1660    4.3970 C   0  0
   -2.7620    0.6470   -2.1680 C   0  0
   -2.0000   -1.6130   -1.6760 C   0  0
   -3.4300    1.9880    5.0350 C   0  0
   -1.4530    0.6480    5.5080 C   0  0
   -2.1000    0.5980   -3.4080 C   0  0
   -1.3400   -1.6620   -2.9160 C   0  0
   -2.2990    1.7250    5.8260 C   0  0
   -1.3910   -0.5550   -3.7810 C   0  0
    7.9570   -0.7190   -2.9690 H   0  0
    4.4670   -0.9260   -5.4880 H   0  0
    6.5590    0.0080   -1.0740 H   0  0
    3.0530   -0.1990   -3.6040 H   0  0
    3.3030    2.3010    1.4550 H   0  0
    2.2930   -1.9220   -2.1310 H   0  0
    1.4120   -0.4840    1.8220 H   0  0
    0.7320    1.0940    1.5650 H   0  0
    0.0720   -2.2600   -1.2560 H   0  0
   -1.5000   -2.0100    0.2770 H   0  0
    0.1440    1.2010   -1.3670 H   0  0
   -1.3130    0.2700   -1.4670 H   0  0
   -1.1020   -2.6310    2.1370 H   0  0
   -0.6580    2.5530    0.3850 H   0  0
   -2.0940    2.2480   -0.5470 H   0  0
   -2.9020    1.7870    1.5880 H   0  0
   -1.3590    1.2770    2.1970 H   0  0
   -2.9280   -1.7970    2.6660 H   0  0
   -4.2480   -0.7680    2.2520 H   0  0
   -4.1100    0.4280    0.0180 H   0  0
   -4.0350   -1.2930    0.1230 H   0  0
   -4.5860    1.3850    3.3180 H   0  0
   -1.0860   -0.9920    4.1580 H   0  0
   -3.3050    1.5370   -1.8870 H   0  0
   -1.9590   -2.4670   -1.0160 H   0  0
   -4.0780    2.8160    5.2790 H   0  0
   -0.5860    0.4450    6.1150 H   0  0
   -2.1390    1.4490   -4.0740 H   0  0
   -0.7950   -2.5490   -3.2030 H   0  0
   -2.0780    2.3500    6.6800 H   0  0
   -0.8830   -0.5920   -4.7340 H   0  0
  1  2  1  0
  2  3  2  0
  2  4  1  0
  3  5  1  0
  4  6  2  0
  5  7  2  0
  7  8  1  0
  8  9  1  0
  8 10  1  0
  9 11  2  0
 10 12  2  0
 10 13  1  0
 12 14  1  0
 13 15  2  0
 16 14  1  0
 16 17  1  0
 16 18  1  0
 17 19  1  0
 17 20  1  0
 18 21  1  0
 20 22  1  0
 20 23  1  0
 20 24  1  0
 23 25  1  0
 24 26  1  0
 25 27  2  0
 25 28  1  0
 26 29  2  0
 26 30  1  0
 27 31  1  0
 28 32  2  0
 29 33  1  0
 30 34  2  0
 31 35  2  0
 33 36  2  0
  6  7  1  0
 11 12  1  0
 16 15  1  0
 21 22  1  0
 32 35  1  0
 34 36  1  0
  3 37  1  0
  4 38  1  0
  5 39  1  0
  6 40  1  0
 11 41  1  0
 13 42  1  0
 14 43  1  0
 14 44  1  0
 15 45  1  0
 17 46  1  0
 18 47  1  0
 18 48  1  0
 19 49  1  0
 21 50  1  0
 21 51  1  0
 22 52  1  0
 22 53  1  0
 23 54  1  0
 23 55  1  0
 24 56  1  0
 24 57  1  0
 27 58  1  0
 28 59  1  0
 29 60  1  0
 30 61  1  0
 31 62  1  0
 32 63  1  0
 33 64  1  0
 34 65  1  0
 35 66  1  0
 36 67  1  0
M  END
> <Name>
CHEMBL4524233

> <IC50 nM>
1000

> <Molecule_ChEMBL_ID>
CHEMBL4524233

> <Smiles>
O[C@H]1C(Cc2ccccc2)(Cc2ccccc2)CCC[C@]12C=Cc1c(cnn1-c1ccc(F)cc1)C2

$$$$
CHEMBL4482892
  SciTegic08162514323D

 57 61  0  0  1  0            999 V2000
    5.2360   -2.6560   -6.0220 F   0  0
    4.8090   -2.3730   -4.7950 C   0  0
    5.6640   -1.7340   -3.8810 C   0  0
    3.4980   -2.7110   -4.4100 C   0  0
    5.2130   -1.4340   -2.5840 C   0  0
    3.0450   -2.4120   -3.1130 C   0  0
    3.9000   -1.7730   -2.1970 C   0  0
    3.4650   -1.4840   -0.9430 N   0  0
    4.1820   -1.6930    0.1930 N   0  0
    2.2560   -0.9490   -0.6290 C   0  0
    3.5200   -1.3110    1.3180 C   0  0
    2.3360   -0.8480    0.7460 C   0  0
    1.0900   -0.5370   -1.4260 C   0  0
    1.1540   -0.2290    1.4820 C   0  0
   -0.0530   -0.2270   -0.7750 C   0  0
   -0.2320   -0.4100    0.7440 C   0  0  2  0  0  0
   -1.2850    0.6370    1.2910 C   0  0  2  0  0  0
   -0.7050   -1.8770    0.9980 C   0  0
   -1.0310    0.9020    2.6620 O   0  0
   -2.7790    0.2090    1.2750 C   0  0
   -1.1190    2.0080    0.6170 C   0  0
   -1.6820   -2.4960   -0.0270 C   0  0
   -3.3050   -0.4750    0.0060 C   0  0
   -1.9140    3.0570    1.3070 C   0  0
   -3.1310   -1.9980    0.0430 C   0  0
   -1.3910    3.7070    2.4400 C   0  0
   -3.1910    3.3980    0.8300 C   0  0
   -2.1430    4.6990    3.0900 C   0  0
   -3.9430    4.3910    1.4820 C   0  0
   -3.4200    5.0410    2.6110 C   0  0
    6.6700   -1.4730   -4.1720 H   0  0
    2.8380   -3.2030   -5.1090 H   0  0
    5.8870   -0.9430   -1.8950 H   0  0
    2.0350   -2.6820   -2.8380 H   0  0
    3.8570   -1.3650    2.3460 H   0  0
    1.1450   -0.4820   -2.5020 H   0  0
    1.1090   -0.6330    2.4960 H   0  0
    1.3830    0.8340    1.5860 H   0  0
   -0.8590    0.1620   -1.3750 H   0  0
    0.1700   -2.5290    0.9980 H   0  0
   -1.1170   -1.9690    2.0040 H   0  0
   -1.0550    0.0530    3.1270 H   0  0
   -3.0020   -0.4510    2.1150 H   0  0
   -3.3930    1.0940    1.4570 H   0  0
   -1.4120    1.9590   -0.4320 H   0  0
   -0.0700    2.3010    0.5980 H   0  0
   -1.3070   -2.3850   -1.0450 H   0  0
   -1.7030   -3.5740    0.1370 H   0  0
   -2.8850   -0.0390   -0.8960 H   0  0
   -4.3750   -0.2770   -0.0610 H   0  0
   -3.5960   -2.3870    0.9510 H   0  0
   -3.6880   -2.4400   -0.7830 H   0  0
   -0.4100    3.4490    2.8110 H   0  0
   -3.6000    2.9020   -0.0390 H   0  0
   -1.7400    5.1990    3.9590 H   0  0
   -4.9260    4.6540    1.1130 H   0  0
   -3.9980    5.8050    3.1130 H   0  0
  1  2  1  0
  2  3  2  0
  2  4  1  0
  3  5  1  0
  4  6  2  0
  5  7  2  0
  7  8  1  0
  8  9  1  0
  8 10  1  0
  9 11  2  0
 10 12  2  0
 10 13  1  0
 12 14  1  0
 13 15  2  0
 16 14  1  0
 16 17  1  0
 16 18  1  0
 17 19  1  0
 17 20  1  0
 17 21  1  0
 18 22  1  0
 20 23  1  0
 21 24  1  0
 22 25  1  0
 24 26  2  0
 24 27  1  0
 26 28  1  0
 27 29  2  0
 28 30  2  0
  6  7  1  0
 11 12  1  0
 16 15  1  0
 23 25  1  0
 29 30  1  0
  3 31  1  0
  4 32  1  0
  5 33  1  0
  6 34  1  0
 11 35  1  0
 13 36  1  0
 14 37  1  0
 14 38  1  0
 15 39  1  0
 18 40  1  0
 18 41  1  0
 19 42  1  0
 20 43  1  0
 20 44  1  0
 21 45  1  0
 21 46  1  0
 22 47  1  0
 22 48  1  0
 23 49  1  0
 23 50  1  0
 25 51  1  0
 25 52  1  0
 26 53  1  0
 27 54  1  0
 28 55  1  0
 29 56  1  0
 30 57  1  0
M  END
> <Name>
CHEMBL4482892

> <IC50 nM>
130

> <Molecule_ChEMBL_ID>
CHEMBL4482892

> <Smiles>
O[C@]1(Cc2ccccc2)CCCCC[C@@]12C=Cc1c(cnn1-c1ccc(F)cc1)C2

$$$$
CHEMBL1762206
  SciTegic08162514323D

 58 62  0  0  0  0            999 V2000
   -1.0610    0.7110    0.6110 F   0  0
   -0.9550   -0.6190    0.5650 C   0  0
   -2.1390   -1.4020    0.6310 C   0  0
    0.3220   -1.2620    0.4570 C   0  0
   -2.0680   -2.8150    0.5940 C   0  0
   -3.4390   -0.7480    0.7400 C   0  0
    0.3830   -2.6900    0.3890 C   0  0
    1.6110   -0.4770    0.4280 C   0  0
   -3.1680   -3.5650    0.6680 F   0  0
   -0.8140   -3.4490    0.4750 C   0  0
   -4.4140   -0.8750   -0.2830 C   0  0
   -3.7480    0.0290    1.8890 C   0  0
    1.5630   -3.3480    0.2330 N   0  0
    1.6600    0.8100    0.3440 N   0  0
    2.9060   -1.2680    0.5120 C   0  0
   -4.4140   -1.5490   -1.4960 N   0  0
   -5.6370   -0.2580   -0.1780 C   0  0
   -5.0140    0.6640    1.9920 C   0  0
    2.8130   -2.6470   -0.1660 C   0  0
    2.8950    1.5450    0.3240 O   0  0
   -5.6700   -1.3150   -2.1070 C   0  0
   -6.4280   -0.4940   -1.2520 C   0  0
   -5.9730    0.5250    0.9550 C   0  0
    4.0200   -3.5000    0.2400 C   0  0
    2.8150   -2.4880   -1.6910 C   0  0
    2.5080    2.9080    0.2250 C   0  0
   -7.8340    0.0080   -1.5000 C   0  0
    3.7210    3.7680    0.1970 C   0  0
    3.9810    4.5840   -0.9200 C   0  0
    4.6110    3.7640    1.2850 C   0  0
    5.1270    5.3950   -0.9450 C   0  0
    5.7600    4.5740    1.2580 C   0  0
    6.0180    5.3910    0.1430 C   0  0
   -0.7830   -4.5310    0.4470 H   0  0
   -3.0290    0.1440    2.6880 H   0  0
    1.6000   -4.3420    0.3540 H   0  0
    3.7400   -0.7150    0.0720 H   0  0
    3.1540   -1.3930    1.5680 H   0  0
   -3.6740   -2.0960   -1.8710 H   0  0
   -5.2480    1.2560    2.8650 H   0  0
   -5.9570   -1.7170   -3.0680 H   0  0
   -6.9340    1.0120    1.0370 H   0  0
    4.0550   -3.6660    1.3170 H   0  0
    4.9490   -3.0160   -0.0550 H   0  0
    3.9830   -4.4750   -0.2460 H   0  0
    1.9650   -1.9010   -2.0390 H   0  0
    2.7700   -3.4610   -2.1820 H   0  0
    3.7230   -1.9880   -2.0250 H   0  0
    1.9080    3.1580    1.1000 H   0  0
    1.9490    3.0390   -0.7010 H   0  0
   -8.1880   -0.3590   -2.4650 H   0  0
   -8.4790   -0.2910   -0.6740 H   0  0
   -7.8300    1.0980   -1.5410 H   0  0
    3.3010    4.5920   -1.7580 H   0  0
    4.4200    3.1390    2.1450 H   0  0
    5.3260    6.0210   -1.8030 H   0  0
    6.4430    4.5720    2.0940 H   0  0
    6.8990    6.0140    0.1230 H   0  0
  1  2  1  0
  2  3  2  0
  2  4  1  0
  3  5  1  0
  3  6  1  0
  4  7  2  0
  4  8  1  0
  5  9  1  0
  5 10  2  0
  6 11  2  0
  6 12  1  0
  7 13  1  0
  8 14  2  0
  8 15  1  0
 11 16  1  0
 11 17  1  0
 12 18  2  0
 13 19  1  0
 14 20  1  0
 16 21  1  0
 17 22  1  0
 17 23  2  0
 19 24  1  0
 19 25  1  0
 20 26  1  0
 22 27  1  0
 26 28  1  0
 28 29  2  0
 28 30  1  0
 29 31  1  0
 30 32  2  0
 31 33  2  0
  7 10  1  0
 15 19  1  0
 18 23  1  0
 21 22  2  0
 32 33  1  0
 10 34  1  0
 12 35  1  0
 13 36  1  0
 15 37  1  0
 15 38  1  0
 16 39  1  0
 18 40  1  0
 21 41  1  0
 23 42  1  0
 24 43  1  0
 24 44  1  0
 24 45  1  0
 25 46  1  0
 25 47  1  0
 25 48  1  0
 26 49  1  0
 26 50  1  0
 27 51  1  0
 27 52  1  0
 27 53  1  0
 29 54  1  0
 30 55  1  0
 31 56  1  0
 32 57  1  0
 33 58  1  0
M  END
> <Name>
CHEMBL1762206

> <IC50 nM>
8.8

> <Molecule_ChEMBL_ID>
CHEMBL1762206

> <Smiles>
Cc1c[nH]c2c(-c3c(F)cc4c(c3F)/C(=N/OCc3ccccc3)CC(C)(C)N4)cccc12

$$$$
CHEMBL1762202
  SciTegic08162514323D

 57 60  0  0  0  0            999 V2000
   -0.5290    1.0100    0.6090 F   0  0
   -0.4240   -0.3200    0.5630 C   0  0
   -1.6070   -1.1020    0.6290 C   0  0
    0.8520   -0.9610    0.4550 C   0  0
   -1.5370   -2.5160    0.5920 C   0  0
   -2.9080   -0.4490    0.7380 C   0  0
    0.9120   -2.3910    0.3870 C   0  0
    2.1430   -0.1760    0.4260 C   0  0
   -2.6390   -3.2640    0.6660 F   0  0
   -0.2830   -3.1500    0.4730 C   0  0
   -3.8830   -0.5720   -0.2850 C   0  0
   -3.2170    0.3280    1.8870 C   0  0
    2.0920   -3.0470    0.2310 N   0  0
    2.1910    1.1090    0.3420 N   0  0
    3.4360   -0.9670    0.5100 C   0  0
   -3.8810   -1.2480   -1.5000 N   0  0
   -5.1060    0.0430   -0.1820 C   0  0
   -4.4840    0.9630    1.9920 C   0  0
    3.3420   -2.3480   -0.1680 C   0  0
    3.4260    1.8460    0.3220 O   0  0
   -5.1370   -1.0120   -2.1090 C   0  0
   -5.8950   -0.1930   -1.2540 C   0  0
   -5.4410    0.8240    0.9530 C   0  0
    4.5490   -3.1990    0.2380 C   0  0
    3.3440   -2.1880   -1.6930 C   0  0
    3.0390    3.2090    0.2250 C   0  0
   -7.3030    0.3110   -1.5040 C   0  0
    4.4280    3.8480    0.2150 C   0  0
    2.2210    3.5960    1.4590 C   0  0
    2.2770    3.4320   -1.0820 C   0  0
   -0.2520   -4.2310    0.4450 H   0  0
   -2.5000    0.4430    2.6880 H   0  0
    2.1290   -4.0410    0.3520 H   0  0
    4.2720   -0.4140    0.0720 H   0  0
    3.6860   -1.0920    1.5660 H   0  0
   -3.1410   -1.7930   -1.8750 H   0  0
   -4.7190    1.5550    2.8650 H   0  0
   -5.4260   -1.4140   -3.0720 H   0  0
   -6.4040    1.3110    1.0350 H   0  0
    4.5840   -3.3670    1.3150 H   0  0
    5.4810   -2.7150   -0.0550 H   0  0
    4.5140   -4.1740   -0.2500 H   0  0
    2.4940   -1.6000   -2.0410 H   0  0
    3.3010   -3.1600   -2.1840 H   0  0
    4.2540   -1.6880   -2.0270 H   0  0
   -7.6500   -0.0450   -2.4750 H   0  0
   -7.9510   -0.0020   -0.6840 H   0  0
   -7.3010    1.4000   -1.5290 H   0  0
    5.0270    3.5020   -0.6270 H   0  0
    4.9690    3.6090    1.1290 H   0  0
    4.3520    4.9340    0.1450 H   0  0
    1.2090    3.1950    1.4160 H   0  0
    2.1490    4.6800    1.5470 H   0  0
    2.6910    3.2190    2.3650 H   0  0
    1.2620    3.0350   -1.0310 H   0  0
    2.7850    2.9410   -1.9120 H   0  0
    2.2090    4.4940   -1.3120 H   0  0
  1  2  1  0
  2  3  2  0
  2  4  1  0
  3  5  1  0
  3  6  1  0
  4  7  2  0
  4  8  1  0
  5  9  1  0
  5 10  2  0
  6 11  2  0
  6 12  1  0
  7 13  1  0
  8 14  2  0
  8 15  1  0
 11 16  1  0
 11 17  1  0
 12 18  2  0
 13 19  1  0
 14 20  1  0
 16 21  1  0
 17 22  1  0
 17 23  2  0
 19 24  1  0
 19 25  1  0
 20 26  1  0
 22 27  1  0
 26 28  1  0
 26 29  1  0
 26 30  1  0
  7 10  1  0
 15 19  1  0
 18 23  1  0
 21 22  2  0
 10 31  1  0
 12 32  1  0
 13 33  1  0
 15 34  1  0
 15 35  1  0
 16 36  1  0
 18 37  1  0
 21 38  1  0
 23 39  1  0
 24 40  1  0
 24 41  1  0
 24 42  1  0
 25 43  1  0
 25 44  1  0
 25 45  1  0
 27 46  1  0
 27 47  1  0
 27 48  1  0
 28 49  1  0
 28 50  1  0
 28 51  1  0
 29 52  1  0
 29 53  1  0
 29 54  1  0
 30 55  1  0
 30 56  1  0
 30 57  1  0
M  END
> <Name>
CHEMBL1762202

> <IC50 nM>
5.6

> <Molecule_ChEMBL_ID>
CHEMBL1762202

> <Smiles>
Cc1c[nH]c2c(-c3c(F)cc4c(c3F)/C(=N/OC(C)(C)C)CC(C)(C)N4)cccc12

$$$$
CHEMBL3093446
  SciTegic08162514323D

 52 54  0  0  1  0            999 V2000
    0.8830   -0.0960   -0.5720 S   0  0
   -0.3300    0.2890    0.1290 O   0  0
    1.7620    1.0250   -0.8540 O   0  0
    1.7600   -1.1310    0.5160 N   0  0
    0.4340   -0.8240   -2.0760 C   0  0
    2.3070   -0.5410    1.7270 C   0  0  2  0  0  0
   -0.7660   -0.4490   -2.7070 C   0  0
    1.2690   -1.7910   -2.6640 C   0  0
    3.3910   -1.4430    2.3180 C   0  0
    1.1890   -0.2310    2.7230 C   0  0
   -1.1290   -1.0430   -3.9300 C   0  0
   -1.6540    0.5720   -2.0900 C   0  0
    0.9040   -2.3830   -3.8870 C   0  0
    2.5390   -2.1920   -2.0020 C   0  0
    4.3610   -1.6680    1.3750 F   0  0
    2.8360   -2.6370    2.6970 F   0  0
    3.9470   -0.8300    3.4100 F   0  0
    0.7620    1.2210    2.6310 C   0  0
   -0.2950   -2.0080   -4.5200 C   0  0
   -0.4980    1.7130    2.5960 C   0  0
    1.6070    2.3420    2.5660 C   0  0
   -0.6820   -2.6350   -5.8130 C   0  0
   -0.5220    3.0820    2.5120 C   0  0
   -1.6990    0.9590    2.6370 C   0  0
    0.7990    3.5040    2.4920 N   0  0
   -1.7380    3.8010    2.4610 C   0  0
   -2.9380    1.6540    2.5880 C   0  0
   -2.9550    3.0720    2.5000 C   0  0
   -4.2010    0.9020    2.6290 C   0  0
    1.1640   -1.9280    0.7870 H   0  0
    2.7070    0.4450    1.5000 H   0  0
    0.3280   -0.8750    2.5490 H   0  0
    1.5100   -0.4510    3.7400 H   0  0
   -2.0510   -0.7560   -4.4160 H   0  0
   -1.1330    1.4550   -1.7230 H   0  0
   -2.1900    0.1270   -1.2520 H   0  0
   -2.3930    0.9000   -2.8200 H   0  0
    1.5450   -3.1250   -4.3400 H   0  0
    3.1110   -1.3610   -1.5900 H   0  0
    3.1760   -2.7110   -2.7210 H   0  0
    2.3220   -2.8830   -1.1890 H   0  0
    2.6890    2.3590    2.5700 H   0  0
    0.0310   -3.3710   -6.1840 H   0  0
   -0.7890   -1.8610   -6.5720 H   0  0
   -1.6450   -3.1310   -5.7010 H   0  0
   -1.6780   -0.1190    2.7010 H   0  0
    1.1210    4.4410    2.4360 H   0  0
   -1.7440    4.8790    2.3950 H   0  0
   -3.8970    3.6030    2.4650 H   0  0
   -5.0390    1.6010    2.6190 H   0  0
   -4.2330    0.1970    1.7990 H   0  0
   -4.2560    0.3320    3.5550 H   0  0
  1  2  2  0
  1  3  2  0
  1  4  1  0
  1  5  1  0
  6  4  1  0
  5  7  2  0
  5  8  1  0
  6  9  1  0
  6 10  1  0
  7 11  1  0
  7 12  1  0
  8 13  2  0
  8 14  1  0
  9 15  1  0
  9 16  1  0
  9 17  1  0
 10 18  1  0
 11 19  2  0
 18 20  1  0
 18 21  2  0
 19 22  1  0
 20 23  1  0
 20 24  2  0
 21 25  1  0
 23 26  2  0
 24 27  1  0
 26 28  1  0
 27 29  1  0
 13 19  1  0
 23 25  1  0
 27 28  2  0
  4 30  1  0
  6 31  1  0
 10 32  1  0
 10 33  1  0
 11 34  1  0
 12 35  1  0
 12 36  1  0
 12 37  1  0
 13 38  1  0
 14 39  1  0
 14 40  1  0
 14 41  1  0
 21 42  1  0
 22 43  1  0
 22 44  1  0
 22 45  1  0
 24 46  1  0
 25 47  1  0
 26 48  1  0
 28 49  1  0
 29 50  1  0
 29 51  1  0
 29 52  1  0
M  END
> <Name>
CHEMBL3093446

> <IC50 nM>
210

> <Molecule_ChEMBL_ID>
CHEMBL3093446

> <Smiles>
Cc1cc(C)c(S(=O)(=O)NC(Cc2c[nH]c3ccc(C)cc23)C(F)(F)F)c(C)c1

$$$$
CHEMBL3093441
  SciTegic08162514323D

 42 44  0  0  1  0            999 V2000
    0.2330    0.2130   -4.2480 Cl  0  0
    0.0700   -1.4260   -3.7640 C   0  0
    0.1680   -1.7890   -2.4040 C   0  0
   -0.1640   -2.4140   -4.7380 C   0  0
    0.4610   -0.5760   -1.2030 S   0  0
    0.0290   -3.1390   -2.0250 C   0  0
   -0.3010   -3.7620   -4.3590 C   0  0
   -0.8030   -0.2560   -0.5610 O   0  0
    1.0800    0.5660   -1.8480 O   0  0
    1.5410   -1.0510    0.0760 N   0  0
    0.1190   -3.5040   -0.7070 N   0  0
   -0.2050   -4.1230   -3.0040 C   0  0
   -0.5840   -4.9630   -5.5510 Cl  0  0
    1.8690   -0.0660    1.0940 C   0  0  2  0  0  0
    3.0960   -0.5080    1.8910 C   0  0
    0.6540    0.2090    1.9820 C   0  0
    4.1780   -0.5940    1.0530 F   0  0
    2.8580   -1.7340    2.4550 F   0  0
    3.3540    0.4080    2.8770 F   0  0
    0.2250    1.6580    1.8910 C   0  0
   -1.0350    2.1500    1.8560 C   0  0
    1.0700    2.7830    1.8260 C   0  0
   -1.0600    3.5200    1.7720 C   0  0
   -2.2320    1.3950    1.8970 C   0  0
    0.2600    3.9430    1.7520 N   0  0
   -2.2790    4.2360    1.7210 C   0  0
   -3.4710    2.0880    1.8480 C   0  0
   -3.4940    3.5060    1.7600 C   0  0
   -0.2380   -2.1370   -5.7810 H   0  0
    2.4200   -1.4000   -0.3300 H   0  0
    0.2810   -4.4610   -0.4650 H   0  0
    0.0240   -2.8140    0.0100 H   0  0
   -0.3120   -5.1620   -2.7210 H   0  0
    2.1000    0.8030    0.4790 H   0  0
    0.8750   -0.0410    3.0220 H   0  0
   -0.1800   -0.4360    1.7070 H   0  0
    2.1530    2.8010    1.8300 H   0  0
   -2.2170    0.3160    1.9610 H   0  0
    0.5800    4.8810    1.6950 H   0  0
   -2.2870    5.3150    1.6540 H   0  0
   -4.3980    1.5350    1.8770 H   0  0
   -4.4390    4.0270    1.7250 H   0  0
  1  2  1  0
  2  3  2  0
  2  4  1  0
  3  5  1  0
  3  6  1  0
  4  7  2  0
  5  8  2  0
  5  9  2  0
  5 10  1  0
  6 11  1  0
  6 12  2  0
  7 13  1  0
 14 10  1  0
 14 15  1  0
 14 16  1  0
 15 17  1  0
 15 18  1  0
 15 19  1  0
 16 20  1  0
 20 21  1  0
 20 22  2  0
 21 23  1  0
 21 24  2  0
 22 25  1  0
 23 26  2  0
 24 27  1  0
 26 28  1  0
  7 12  1  0
 23 25  1  0
 27 28  2  0
  4 29  1  0
 10 30  1  0
 11 31  1  0
 11 32  1  0
 12 33  1  0
 14 34  1  0
 16 35  1  0
 16 36  1  0
 22 37  1  0
 24 38  1  0
 25 39  1  0
 26 40  1  0
 27 41  1  0
 28 42  1  0
M  END
> <Name>
CHEMBL3093441

> <IC50 nM>
10

> <Molecule_ChEMBL_ID>
CHEMBL3093441

> <Smiles>
Nc1cc(Cl)cc(Cl)c1S(=O)(=O)NC(Cc1c[nH]c2ccccc12)C(F)(F)F

$$$$
CHEMBL1254820
  SciTegic08162514323D

 51 53  0  0  1  0            999 V2000
    5.7520    2.2360   -2.0270 F   0  0
    5.0740    1.2230   -1.4960 C   0  0
    3.8400    1.4550   -0.8630 C   0  0
    5.5920   -0.0820   -1.5660 C   0  0
    3.1230    0.3830   -0.3030 C   0  0
    4.8750   -1.1520   -1.0040 C   0  0
    3.6410   -0.9260   -0.3710 C   0  0
    1.8180    0.6410    0.3630 C   0  0
    2.9770   -1.9380    0.1520 O   0  0
    0.9880    0.1190   -0.8090 C   0  0
    1.6040    2.1330    0.6210 C   0  0
    1.6540   -0.2050    1.6270 C   0  0
    3.6230   -3.2010    0.2030 C   0  0
   -0.4960    0.4630   -0.6800 C   0  0  1  0  0  0
   -0.6500    1.8440   -0.9120 O   0  0
   -1.2170   -0.2950   -1.7970 C   0  0
   -1.0570    0.1450    0.7050 C   0  0
   -1.2810   -1.6270   -1.4790 F   0  0
   -0.5310   -0.1370   -2.9730 F   0  0
   -2.4860    0.2030   -1.9390 F   0  0
   -2.5700    0.2050    0.7130 C   0  0
   -3.3960   -0.9180    0.7170 N   0  0
   -3.4080    1.3240    0.7150 C   0  0
   -4.6930   -0.4410    0.7230 C   0  0
   -4.7210    0.9510    0.7190 C   0  0
   -5.9220   -1.1500    0.7300 C   0  0
   -5.8750    1.7010    0.7230 N   0  0
   -7.1350   -0.4060    0.7340 C   0  0
   -7.0820    1.0180    0.7290 C   0  0
    3.4430    2.4590   -0.8110 H   0  0
    6.5390   -0.2660   -2.0510 H   0  0
    5.2760   -2.1540   -1.0610 H   0  0
    1.1250   -0.9550   -0.9300 H   0  0
    1.3870    0.4820   -1.7560 H   0  0
    2.4430    2.5780    1.1540 H   0  0
    0.7050    2.2950    1.2190 H   0  0
    1.4790    2.6720   -0.3180 H   0  0
    2.6060   -0.3710    2.1310 H   0  0
    1.2330   -1.1820    1.3850 H   0  0
    0.9830    0.2810    2.3320 H   0  0
    3.7380   -3.5680   -0.8160 H   0  0
    4.5390   -3.0940    0.7850 H   0  0
    2.9710   -3.8950    0.7340 H   0  0
   -0.9180    2.2480   -0.0720 H   0  0
   -0.6640    0.8360    1.4490 H   0  0
   -0.7320   -0.8420    1.0370 H   0  0
   -3.1090   -1.8710    0.7170 H   0  0
   -3.0570    2.3480    0.7110 H   0  0
   -5.9380   -2.2310    0.7360 H   0  0
   -8.0860   -0.9160    0.7400 H   0  0
   -8.0040    1.5800    0.7290 H   0  0
  1  2  1  0
  2  3  2  0
  2  4  1  0
  3  5  1  0
  4  6  2  0
  5  7  2  0
  5  8  1  0
  7  9  1  0
  8 10  1  0
  8 11  1  0
  8 12  1  0
  9 13  1  0
 10 14  1  0
 14 15  1  0
 14 16  1  0
 14 17  1  0
 16 18  1  0
 16 19  1  0
 16 20  1  0
 17 21  1  0
 21 22  1  0
 21 23  2  0
 22 24  1  0
 23 25  1  0
 24 26  1  0
 25 27  1  0
 26 28  2  0
 27 29  2  0
  6  7  1  0
 24 25  2  0
 28 29  1  0
  3 30  1  0
  4 31  1  0
  6 32  1  0
 10 33  1  0
 10 34  1  0
 11 35  1  0
 11 36  1  0
 11 37  1  0
 12 38  1  0
 12 39  1  0
 12 40  1  0
 13 41  1  0
 13 42  1  0
 13 43  1  0
 15 44  1  0
 17 45  1  0
 17 46  1  0
 22 47  1  0
 23 48  1  0
 26 49  1  0
 28 50  1  0
 29 51  1  0
M  END
> <Name>
CHEMBL1254820

> <IC50 nM>
120

> <Molecule_ChEMBL_ID>
CHEMBL1254820

> <Smiles>
COc1ccc(F)cc1C(C)(C)CC(O)(Cc1cc2ncccc2[nH]1)C(F)(F)F

$$$$
CHEMBL1940549
  SciTegic08162514323D

 68 73  0  0  1  0            999 V2000
    4.3870   -0.1860   -1.8280 S   0  0
    3.8300   -0.1800   -3.4220 C   0  0
    2.9000   -0.2380   -0.9060 C   0  0
    4.6860   -0.1480   -4.5270 N   0  0
    2.4730   -0.2050   -3.7580 N   0  0
    3.2230   -0.2720    0.5640 C   0  0
    4.2700   -0.1410   -5.8500 C   0  0
    1.9770   -0.1990   -5.0490 C   0  0
    4.3010    0.0940    0.9730 O   0  0
    2.1620   -0.7730    1.5140 C   0  0  2  0  0  0
    2.8750   -0.1660   -6.1390 C   0  0
    5.1990   -0.1090   -6.9180 C   0  0
    2.0230   -2.1660    1.2770 O   0  0
    0.7930   -0.0590    1.3930 C   0  0  2  0  0  0
    2.5120   -0.5610    3.0000 C   0  0
    2.4140   -0.1580   -7.4790 C   0  0
    4.7400   -0.1000   -8.2580 C   0  0
    0.1030   -0.5040    2.6870 C   0  0  1  0  0  0
   -0.1190   -0.4530    0.2150 C   0  0
    1.0620    1.4550    1.4100 C   0  0
    1.1950   -0.2830    3.7340 C   0  0
    3.3520   -0.1250   -8.5350 C   0  0
   -1.2380    0.2090    2.9160 C   0  0  1  0  0  0
   -1.5430    0.1390    0.3460 C   0  0  1  0  0  0
   -2.1920   -0.1350    1.7360 C   0  0  2  0  0  0
   -1.8220   -0.2560    4.2640 C   0  0
   -1.4980    1.5230    0.0600 O   0  0
   -3.6170    0.4710    1.9510 C   0  0  2  0  0  0
   -3.2290    0.3010    4.5060 C   0  0
   -4.1290    0.0210    3.3220 C   0  0
   -4.5570    0.0760    0.8140 C   0  0
   -3.5880    2.0040    1.9820 C   0  0
   -5.3150   -0.6000    3.4940 C   0  0
   -5.7310   -0.5530    1.0100 C   0  0
   -6.1880   -0.9080    2.3550 C   0  0
   -7.2580   -1.4450    2.5250 O   0  0
    2.3010    0.6430   -1.1330 H   0  0
    2.3320   -1.1270   -1.1820 H   0  0
    0.9080   -0.2210   -5.2070 H   0  0
    6.2620   -0.0900   -6.7230 H   0  0
    1.7170   -2.2740    0.3630 H   0  0
    3.0370   -1.4020    3.4300 H   0  0
    3.1660    0.2930    3.1210 H   0  0
    1.3570   -0.1760   -7.7030 H   0  0
    5.4510   -0.0740   -9.0690 H   0  0
   -0.0960   -1.5660    2.6410 H   0  0
    0.3380   -0.1640   -0.7320 H   0  0
   -0.2170   -1.5390    0.1760 H   0  0
    0.1540    2.0060    1.6620 H   0  0
    1.8380    1.7010    2.1370 H   0  0
    1.4000    1.7990    0.4320 H   0  0
    1.0640   -0.9340    4.5880 H   0  0
    1.1780    0.7340    4.1000 H   0  0
    3.0080   -0.1170   -9.5610 H   0  0
   -1.0820    1.2890    2.9570 H   0  0
   -2.1560   -0.3070   -0.4380 H   0  0
   -2.3240   -1.2170    1.7700 H   0  0
   -1.1680    0.0430    5.0840 H   0  0
   -1.8630   -1.3460    4.2850 H   0  0
   -1.2540    1.6150   -0.8730 H   0  0
   -3.1780    1.3770    4.6700 H   0  0
   -3.6410   -0.1310    5.4200 H   0  0
   -4.2760    0.3110   -0.2030 H   0  0
   -4.4900    2.4180    2.4320 H   0  0
   -3.5020    2.4080    0.9750 H   0  0
   -2.7350    2.3610    2.5590 H   0  0
   -5.6350   -0.8850    4.4860 H   0  0
   -6.3460   -0.7990    0.1580 H   0  0
  1  2  1  0
  1  3  1  0
  2  4  2  0
  2  5  1  0
  3  6  1  0
  4  7  1  0
  5  8  2  0
  6  9  2  0
  6 10  1  0
  7 11  1  0
  7 12  2  0
 10 13  1  0
 10 14  1  0
 10 15  1  0
 11 16  2  0
 12 17  1  0
 14 18  1  0
 14 19  1  0
 14 20  1  0
 15 21  1  0
 16 22  1  0
 18 23  1  0
 19 24  1  0
 25 23  1  0
 23 26  1  0
 24 27  1  0
 25 28  1  0
 26 29  1  0
 28 30  1  0
 28 31  1  0
 28 32  1  0
 30 33  2  0
 31 34  2  0
 33 35  1  0
 35 36  2  0
  8 11  1  0
 17 22  2  0
 18 21  1  0
 24 25  1  0
 29 30  1  0
 34 35  1  0
  3 37  1  0
  3 38  1  0
  8 39  1  0
 12 40  1  0
 13 41  1  0
 15 42  1  0
 15 43  1  0
 16 44  1  0
 17 45  1  0
 18 46  1  0
 19 47  1  0
 19 48  1  0
 20 49  1  0
 20 50  1  0
 20 51  1  0
 21 52  1  0
 21 53  1  0
 22 54  1  0
 23 55  1  0
 24 56  1  0
 25 57  1  0
 26 58  1  0
 26 59  1  0
 27 60  1  0
 29 61  1  0
 29 62  1  0
 31 63  1  0
 32 64  1  0
 32 65  1  0
 32 66  1  0
 33 67  1  0
 34 68  1  0
M  END
> <Name>
CHEMBL1940549

> <IC50 nM>
68.7

> <Molecule_ChEMBL_ID>
CHEMBL1940549

> <Smiles>
C[C@]12C=CC(=O)C=C1CC[C@@H]1[C@@H]2[C@@H](O)C[C@@]2(C)[C@H]1CC[C@]2(O)C(=O)CSc1ncc2ccccc2n1

$$$$
CHEMBL4104286
  SciTegic08162514323D

 61 65  0  0  1  0            999 V2000
    3.2870   -0.5350   -9.3340 F   0  0
    2.6800   -0.5720   -8.1510 C   0  0
    1.2990   -0.3260   -8.0610 C   0  0
    3.4200   -0.8560   -6.9900 C   0  0
    0.6580   -0.3650   -6.8110 C   0  0
    2.7810   -0.8970   -5.7380 C   0  0
    1.3970   -0.6500   -5.6470 C   0  0
    0.7770   -0.6880   -4.4380 N   0  0
   -0.4450   -1.2700   -4.1840 N   0  0
    1.2380   -0.1700   -3.2700 C   0  0
   -0.8710   -1.1840   -2.8750 C   0  0
    0.2250   -0.4920   -2.3870 C   0  0
    2.4040    0.5330   -2.8850 C   0  0
    0.3420   -0.1090   -1.0260 C   0  0
    2.5260    0.9180   -1.5270 C   0  0
    1.4980    0.5980   -0.6000 C   0  0
    1.6210    0.9650    0.6840 O   0  0
    0.7810    0.3360    1.6410 C   0  0  2  0  0  0
   -0.5270    1.0080    1.6660 C   0  0
    1.4570    0.3690    3.0120 C   0  0  1  0  0  0
   -1.7110    0.2480    1.8260 C   0  0
   -0.6010    2.4160    1.5250 C   0  0
    0.6390   -0.3220    4.0190 N   0  0
    2.8790   -0.1930    2.9820 C   0  0
   -2.9690    0.8950    1.8460 C   0  0
   -1.8570    3.0660    1.5600 C   0  0
    0.4430   -1.6700    3.9160 C   0  0
   -4.1000    0.1700    1.9690 O   0  0
   -3.0390    2.3110    1.7360 C   0  0
    0.9400   -2.2890    3.0040 O   0  0
   -0.3960   -2.3590    4.9570 C   0  0
   -5.3650    0.7830    1.6950 C   0  0
   -4.2360    2.9320    1.7990 O   0  0
   -1.5740   -1.6840    5.1460 F   0  0
   -0.6660   -3.6500    4.5780 F   0  0
    0.4040   -2.3670    6.2600 C   0  0
   -5.3810    2.2110    2.2690 C   0  0
    0.7270   -0.1070   -8.9490 H   0  0
    4.4830   -1.0450   -7.0550 H   0  0
   -0.4040   -0.1740   -6.7600 H   0  0
    3.3670   -1.1170   -4.8580 H   0  0
   -1.7850   -1.5570   -2.4300 H   0  0
    3.1780    0.7700   -3.6020 H   0  0
   -0.4330   -0.3480   -0.3110 H   0  0
    3.4030    1.4570   -1.1990 H   0  0
    0.6490   -0.7050    1.3460 H   0  0
    1.6290    1.3960    3.3320 H   0  0
   -1.6580   -0.8260    1.9300 H   0  0
    0.2990    2.9980    1.3940 H   0  0
    0.2290    0.1890    4.7730 H   0  0
    3.2850   -0.2680    3.9920 H   0  0
    2.8950   -1.1800    2.5190 H   0  0
    3.5370    0.4570    2.4060 H   0  0
   -1.9100    4.1410    1.4550 H   0  0
   -5.5060    0.8110    0.6130 H   0  0
   -6.1560    0.1660    2.1210 H   0  0
   -0.1290   -2.8830    7.0590 H   0  0
    0.6060   -1.3500    6.5940 H   0  0
    1.3610   -2.8690    6.1190 H   0  0
   -6.2810    2.7560    1.9820 H   0  0
   -5.3440    2.1800    3.3590 H   0  0
  1  2  1  0
  2  3  2  0
  2  4  1  0
  3  5  1  0
  4  6  2  0
  5  7  2  0
  7  8  1  0
  8  9  1  0
  8 10  1  0
  9 11  2  0
 10 12  1  0
 10 13  2  0
 12 14  2  0
 13 15  1  0
 14 16  1  0
 16 17  1  0
 18 17  1  0
 18 19  1  0
 18 20  1  0
 19 21  2  0
 19 22  1  0
 20 23  1  0
 20 24  1  0
 21 25  1  0
 22 26  2  0
 23 27  1  0
 25 28  1  0
 25 29  2  0
 27 30  2  0
 27 31  1  0
 28 32  1  0
 29 33  1  0
 31 34  1  0
 31 35  1  0
 31 36  1  0
 32 37  1  0
  6  7  1  0
 11 12  1  0
 15 16  2  0
 26 29  1  0
 33 37  1  0
  3 38  1  0
  4 39  1  0
  5 40  1  0
  6 41  1  0
 11 42  1  0
 13 43  1  0
 14 44  1  0
 15 45  1  0
 18 46  1  0
 20 47  1  0
 21 48  1  0
 22 49  1  0
 23 50  1  0
 24 51  1  0
 24 52  1  0
 24 53  1  0
 26 54  1  0
 32 55  1  0
 32 56  1  0
 36 57  1  0
 36 58  1  0
 36 59  1  0
 37 60  1  0
 37 61  1  0
M  END
> <Name>
CHEMBL4104286

> <IC50 nM>
0.08

> <Molecule_ChEMBL_ID>
CHEMBL4104286

> <Smiles>
C[C@H](NC(=O)C(C)(F)F)[C@H](Oc1ccc2c(cnn2-c2ccc(F)cc2)c1)c1ccc2c(c1)OCCO2

$$$$
CHEMBL3666814
  SciTegic08162514323D

 77 82  0  0  1  0            999 V2000
   -0.9900    3.4220   -7.7580 F   0  0
    0.3220    3.6930   -8.0430 C   0  0
    0.6190    4.9750   -7.6560 F   0  0
    1.2270    2.7110   -7.3500 C   0  0
    0.5570    3.5470   -9.5470 C   0  0
    1.9630    1.9880   -7.9810 O   0  0
    1.2030    2.6480   -5.9840 N   0  0
    2.0800    1.6950   -5.2910 C   0  0  2  0  0  0
    1.5290    1.3540   -3.9040 C   0  0  2  0  0  0
    3.5200    2.2090   -5.2440 C   0  0
    2.4430    0.5000   -3.2310 O   0  0
    0.2170    0.6950   -3.9900 C   0  0
    2.1150    0.0720   -2.0020 C   0  0
   -0.9550    1.4040   -3.6310 C   0  0
    0.1230   -0.6470   -4.4340 C   0  0
    2.7030   -1.1130   -1.4860 C   0  0
    1.1840    0.8090   -1.2230 C   0  0
   -2.2170    0.7730   -3.7150 C   0  0
   -1.1390   -1.2810   -4.5180 C   0  0
    2.3480   -1.5550   -0.1860 C   0  0
    0.8320    0.3630    0.0760 C   0  0
   -3.3380    1.4370   -3.3650 O   0  0
   -2.3120   -0.5760   -4.1580 C   0  0
    1.4400   -0.8200    0.5530 C   0  0
    2.8790   -2.6990    0.3850 C   0  0
   -4.6270    0.8630   -3.6370 C   0  0
   -3.6500   -1.2210   -4.2420 C   0  0
    1.3590   -1.5370    1.7030 N   0  0
    2.2010   -2.6190    1.5840 N   0  0
   -4.6170   -0.5450   -3.4400 O   0  0
    0.5920   -1.2520    2.7890 C   0  0
    1.1230   -1.3910    4.0860 C   0  0
   -0.7360   -0.8160    2.6190 C   0  0
    0.3260   -1.0960    5.2090 C   0  0
   -1.5290   -0.5220    3.7400 C   0  0
    0.8910   -1.2440    6.5840 C   0  0
   -0.9980   -0.6600    5.0350 C   0  0
    2.0800   -1.1700    6.7790 O   0  0
    0.0310   -1.4650    7.6250 N   0  0
    0.5700   -1.6130    8.9850 C   0  0
   -0.5000   -1.9360    9.9630 C   0  0
   -0.8480   -3.2770   10.2230 C   0  0
   -1.1760   -0.9060   10.6410 C   0  0
   -1.8260   -3.5980   11.1190 N   0  0
   -2.1840   -1.2480   11.5610 C   0  0
   -2.4880   -2.6060   11.7810 C   0  0
   -0.0680    4.2290  -10.1230 H   0  0
    0.3300    2.5310   -9.8750 H   0  0
    1.5960    3.7540   -9.7970 H   0  0
    0.5940    3.2460   -5.4650 H   0  0
    2.1840    0.7950   -5.8970 H   0  0
    1.4380    2.2750   -3.3320 H   0  0
    3.8850    2.4220   -6.2480 H   0  0
    3.5860    3.1150   -4.6410 H   0  0
    4.1800    1.4630   -4.7990 H   0  0
   -0.8890    2.4280   -3.2910 H   0  0
    1.0160   -1.1910   -4.7110 H   0  0
    3.4120   -1.6660   -2.0880 H   0  0
    0.7400    1.7110   -1.6190 H   0  0
   -1.2010   -2.3050   -4.8570 H   0  0
    0.1250    0.9140    0.6780 H   0  0
    3.5900   -3.4450    0.0510 H   0  0
   -5.3670    1.3220   -2.9820 H   0  0
   -4.8980    1.0780   -4.6720 H   0  0
   -3.9920   -1.2110   -5.2770 H   0  0
   -3.6090   -2.2620   -3.9140 H   0  0
    2.1410   -1.7250    4.2310 H   0  0
   -1.1620   -0.7010    1.6310 H   0  0
   -2.5470   -0.1880    3.6090 H   0  0
   -1.6170   -0.4320    5.8930 H   0  0
   -0.9510   -1.5250    7.4530 H   0  0
    1.0650   -0.6880    9.2770 H   0  0
    1.3180   -2.4060    8.9900 H   0  0
   -0.3320   -4.0740    9.7070 H   0  0
   -0.9300    0.1310   10.4610 H   0  0
   -2.7190   -0.4750   12.0940 H   0  0
   -3.2640   -2.8670   12.4880 H   0  0
  1  2  1  0
  2  3  1  0
  2  4  1  0
  2  5  1  0
  4  6  2  0
  4  7  1  0
  7  8  1  0
  8  9  1  0
  8 10  1  0
  9 11  1  0
  9 12  1  0
 11 13  1  0
 12 14  2  0
 12 15  1  0
 13 16  2  0
 13 17  1  0
 14 18  1  0
 15 19  2  0
 16 20  1  0
 17 21  2  0
 18 22  1  0
 18 23  2  0
 20 24  2  0
 20 25  1  0
 22 26  1  0
 23 27  1  0
 24 28  1  0
 25 29  2  0
 26 30  1  0
 28 31  1  0
 31 32  2  0
 31 33  1  0
 32 34  1  0
 33 35  2  0
 34 36  1  0
 34 37  2  0
 36 38  2  0
 36 39  1  0
 39 40  1  0
 40 41  1  0
 41 42  2  0
 41 43  1  0
 42 44  1  0
 43 45  2  0
 44 46  2  0
 19 23  1  0
 21 24  1  0
 27 30  1  0
 28 29  1  0
 35 37  1  0
 45 46  1  0
  5 47  1  0
  5 48  1  0
  5 49  1  0
  7 50  1  0
  8 51  1  0
  9 52  1  0
 10 53  1  0
 10 54  1  0
 10 55  1  0
 14 56  1  0
 15 57  1  0
 16 58  1  0
 17 59  1  0
 19 60  1  0
 21 61  1  0
 25 62  1  0
 26 63  1  0
 26 64  1  0
 27 65  1  0
 27 66  1  0
 32 67  1  0
 33 68  1  0
 35 69  1  0
 37 70  1  0
 39 71  1  0
 40 72  1  0
 40 73  1  0
 42 74  1  0
 43 75  1  0
 45 76  1  0
 46 77  1  0
M  END
> <Name>
CHEMBL3666814

> <IC50 nM>
0.38

> <Molecule_ChEMBL_ID>
CHEMBL3666814

> <Smiles>
C[C@H](NC(=O)C(C)(F)F)[C@H](Oc1ccc2c(cnn2-c2cccc(C(=O)NCc3cccnc3)c2)c1)c1ccc2c(c1)OCOC2

$$$$
CHEMBL4534388
  SciTegic08162514323D

 57 61  0  0  1  0            999 V2000
   -5.9360    2.3980    5.8200 F   0  0
   -5.1250    1.6520    5.0740 C   0  0
   -5.5920    0.4510    4.5120 C   0  0
   -3.8010    2.0640    4.8460 C   0  0
   -4.7360   -0.3380    3.7250 C   0  0
   -2.9430    1.2770    4.0570 C   0  0
   -3.4100    0.0740    3.4940 C   0  0
   -2.5820   -0.6880    2.7320 N   0  0
   -2.4650   -2.0390    2.8260 N   0  0
   -1.7460   -0.2270    1.7660 C   0  0
   -1.5740   -2.5630    1.9390 C   0  0
   -1.1740   -1.3930    1.2990 C   0  0
   -1.4350    1.1150    1.2460 C   0  0
   -0.2010   -1.2790    0.1330 C   0  0
   -0.3690    1.2500    0.4260 C   0  0
    0.6040    0.0840    0.1090 C   0  0  2  0  0  0
    1.3170    0.2870   -1.2950 C   0  0  1  0  0  0
    1.6510    0.1090    1.2720 C   0  0
    1.5370    1.6660   -1.5490 O   0  0
    2.7350   -0.3280   -1.4570 C   0  0
    0.4240   -0.1450   -2.4650 C   0  0
    2.3790   -1.2110    1.6040 C   0  0
    2.9670   -1.7300   -0.8850 C   0  0
    0.9470    0.3480   -3.7660 C   0  0
    3.4200   -1.6970    0.5820 C   0  0
    0.6390    1.6500   -4.2010 C   0  0
    1.7520   -0.4860   -4.5630 C   0  0
    1.1350    2.1170   -5.4300 C   0  0
    2.2460   -0.0180   -5.7930 C   0  0
    1.9380    1.2830   -6.2270 C   0  0
   -6.6090    0.1310    4.6860 H   0  0
   -3.4370    2.9880    5.2740 H   0  0
   -5.1150   -1.2580    3.3010 H   0  0
   -1.9280    1.6130    3.8930 H   0  0
   -1.2930   -3.5980    1.8050 H   0  0
   -2.0410    1.9690    1.5160 H   0  0
   -0.8260   -1.3630   -0.7540 H   0  0
    0.4360   -2.1580    0.1090 H   0  0
   -0.2260    2.2320    0.0060 H   0  0
    1.1540    0.3960    2.1990 H   0  0
    2.3850    0.9000    1.0980 H   0  0
    2.0780    2.0080   -0.8200 H   0  0
    3.4960    0.3240   -1.0210 H   0  0
    2.9810   -0.3550   -2.5220 H   0  0
   -0.5960    0.2130   -2.3240 H   0  0
    0.3320   -1.2300   -2.4980 H   0  0
    2.9020   -1.0720    2.5510 H   0  0
    1.6660   -2.0060    1.8130 H   0  0
    3.7780   -2.1860   -1.4530 H   0  0
    2.1130   -2.3830   -1.0510 H   0  0
    3.7500   -2.6950    0.8730 H   0  0
    4.3050   -1.0640    0.6580 H   0  0
    0.0220    2.2970   -3.5940 H   0  0
    1.9920   -1.4860   -4.2340 H   0  0
    0.8990    3.1150   -5.7640 H   0  0
    2.8630   -0.6600   -6.4040 H   0  0
    2.3180    1.6410   -7.1720 H   0  0
  1  2  1  0
  2  3  2  0
  2  4  1  0
  3  5  1  0
  4  6  2  0
  5  7  2  0
  7  8  1  0
  8  9  1  0
  8 10  1  0
  9 11  2  0
 10 12  2  0
 10 13  1  0
 12 14  1  0
 13 15  2  0
 16 14  1  0
 16 17  1  0
 16 18  1  0
 17 19  1  0
 17 20  1  0
 17 21  1  0
 18 22  1  0
 20 23  1  0
 21 24  1  0
 22 25  1  0
 24 26  2  0
 24 27  1  0
 26 28  1  0
 27 29  2  0
 28 30  2  0
  6  7  1  0
 11 12  1  0
 16 15  1  0
 23 25  1  0
 29 30  1  0
  3 31  1  0
  4 32  1  0
  5 33  1  0
  6 34  1  0
 11 35  1  0
 13 36  1  0
 14 37  1  0
 14 38  1  0
 15 39  1  0
 18 40  1  0
 18 41  1  0
 19 42  1  0
 20 43  1  0
 20 44  1  0
 21 45  1  0
 21 46  1  0
 22 47  1  0
 22 48  1  0
 23 49  1  0
 23 50  1  0
 25 51  1  0
 25 52  1  0
 26 53  1  0
 27 54  1  0
 28 55  1  0
 29 56  1  0
 30 57  1  0
M  END
> <Name>
CHEMBL4534388

> <IC50 nM>
89

> <Molecule_ChEMBL_ID>
CHEMBL4534388

> <Smiles>
O[C@@]1(Cc2ccccc2)CCCCC[C@@]12C=Cc1c(cnn1-c1ccc(F)cc1)C2

$$$$
CHEMBL1917251
  SciTegic08162514323D

 79 85  0  0  1  0            999 V2000
   -3.5450   -2.1250    0.5590 S   0  0
   -5.1250   -1.7460    1.0250 C   0  0
   -3.0550   -0.6970   -0.3260 C   0  0
   -5.9880   -0.6720    0.8670 N   0  0
   -5.6000   -2.8710    1.7580 C   0  0
   -1.6430   -0.8730   -0.8200 C   0  0
   -7.2680   -0.6840    1.3980 C   0  0
   -6.8710   -2.9100    2.2990 N   0  0
   -1.3130   -1.8750   -1.4120 O   0  0
   -0.6540    0.2360   -0.5570 C   0  0  2  0  0  0
   -7.7190   -1.8300    2.1310 C   0  0
   -8.1350    0.4240    1.2250 C   0  0
   -0.5860    1.0290   -1.7360 O   0  0
    0.7580   -0.2320   -0.1580 C   0  0  2  0  0  0
   -1.0430    1.1430    0.6210 C   0  0
   -9.0280   -1.8440    2.6760 C   0  0
   -9.4380    0.3980    1.7730 C   0  0
   -1.7890    1.3070   -2.2320 C   0  0
    1.3570    1.0960    0.3110 C   0  0  1  0  0  0
    1.6450   -0.7620   -1.2990 C   0  0
    0.6310   -1.2420    0.9920 C   0  0
    0.2700    1.6470    1.2310 C   0  0
   -9.8830   -0.7300    2.4960 C   0  0
   -2.5720    2.0660   -1.7110 O   0  0
   -2.1410    0.6330   -3.4730 C   0  0
    2.7640    0.9260    0.9120 C   0  0  1  0  0  0
    3.1190   -0.9300   -0.8630 C   0  0  1  0  0  0
   -1.1640   -0.0700   -4.1150 O   0  0
   -3.3710    0.6000   -4.1310 C   0  0
    3.7050    0.3400   -0.1720 C   0  0  2  0  0  0
    3.2660    2.3090    1.3610 C   0  0
    3.2230   -2.0660   -0.0270 O   0  0
   -1.8050   -0.5660   -5.2150 C   0  0
   -3.1500   -0.1820   -5.2660 C   0  0
    5.1860    0.2190    0.3200 C   0  0  2  0  0  0
    4.7030    2.2580    1.8810 C   0  0
    5.6540    1.5270    0.9530 C   0  0
    6.0840   -0.1800   -0.8790 C   0  0
    5.3300   -0.8280    1.4360 C   0  0
    6.8870    2.0350    0.7270 C   0  0
    7.5840   -0.0350   -0.5980 C   0  0
    7.9000    1.3460   -0.0880 C   0  0
    8.9570    1.8810   -0.3400 O   0  0
   -3.7270   -0.5430   -1.1700 H   0  0
   -3.1110    0.1720    0.3280 H   0  0
   -4.9630   -3.7320    1.9080 H   0  0
   -7.8130    1.2970    0.6760 H   0  0
   -1.5980    0.5940    1.3690 H   0  0
   -1.6740    1.9610    0.3010 H   0  0
   -9.3870   -2.6970    3.2310 H   0  0
  -10.0960    1.2460    1.6410 H   0  0
    1.4390    1.7660   -0.5350 H   0  0
    1.2440   -1.6990   -1.6880 H   0  0
    1.6170   -0.0600   -2.1350 H   0  0
   -0.1450   -0.9510    1.7030 H   0  0
    1.5680   -1.3240    1.5390 H   0  0
    0.3790   -2.2320    0.6110 H   0  0
    0.3030    2.7250    1.2830 H   0  0
    0.3870    1.2680    2.2360 H   0  0
  -10.8790   -0.7460    2.9140 H   0  0
    2.7270    0.2580    1.7730 H   0  0
    3.7050   -1.1620   -1.7520 H   0  0
   -4.2950    1.0740   -3.8280 H   0  0
    3.7250    1.0900   -0.9650 H   0  0
    2.6170    2.7150    2.1390 H   0  0
    3.2170    3.0060    0.5230 H   0  0
    3.0180   -2.8420   -0.5720 H   0  0
   -1.3140   -1.1840   -5.9550 H   0  0
   -3.8730   -0.4410   -6.0290 H   0  0
    5.0510    3.2750    2.0630 H   0  0
    4.7170    1.7560    2.8480 H   0  0
    5.8770   -1.2050   -1.1870 H   0  0
    5.8380    0.4470   -1.7380 H   0  0
    6.2340   -0.6480    2.0160 H   0  0
    4.4690   -0.8010    2.1020 H   0  0
    5.3970   -1.8320    1.0160 H   0  0
    7.1540    2.9860    1.1640 H   0  0
    7.9000   -0.7690    0.1430 H   0  0
    8.1540   -0.2340   -1.5060 H   0  0
  1  2  1  0
  1  3  1  0
  2  4  2  0
  2  5  1  0
  3  6  1  0
  4  7  1  0
  5  8  2  0
  6  9  2  0
  6 10  1  0
  7 11  1  0
  7 12  2  0
 10 13  1  0
 10 14  1  0
 10 15  1  0
 11 16  2  0
 12 17  1  0
 13 18  1  0
 14 19  1  0
 14 20  1  0
 14 21  1  0
 15 22  1  0
 16 23  1  0
 18 24  2  0
 18 25  1  0
 19 26  1  0
 20 27  1  0
 25 28  1  0
 25 29  2  0
 30 26  1  0
 26 31  1  0
 27 32  1  0
 28 33  1  0
 29 34  1  0
 30 35  1  0
 31 36  1  0
 35 37  1  0
 35 38  1  0
 35 39  1  0
 37 40  2  0
 38 41  1  0
 40 42  1  0
 42 43  2  0
  8 11  1  0
 17 23  2  0
 19 22  1  0
 27 30  1  0
 33 34  2  0
 36 37  1  0
 41 42  1  0
  3 44  1  0
  3 45  1  0
  5 46  1  0
 12 47  1  0
 15 48  1  0
 15 49  1  0
 16 50  1  0
 17 51  1  0
 19 52  1  0
 20 53  1  0
 20 54  1  0
 21 55  1  0
 21 56  1  0
 21 57  1  0
 22 58  1  0
 22 59  1  0
 23 60  1  0
 26 61  1  0
 27 62  1  0
 29 63  1  0
 30 64  1  0
 31 65  1  0
 31 66  1  0
 32 67  1  0
 33 68  1  0
 34 69  1  0
 36 70  1  0
 36 71  1  0
 38 72  1  0
 38 73  1  0
 39 74  1  0
 39 75  1  0
 39 76  1  0
 40 77  1  0
 41 78  1  0
 41 79  1  0
M  END
> <Name>
CHEMBL1917251

> <IC50 nM>
1.4

> <Molecule_ChEMBL_ID>
CHEMBL1917251

> <Smiles>
C[C@]12CCC(=O)C=C1CC[C@@H]1[C@@H]2[C@@H](O)C[C@@]2(C)[C@H]1CC[C@]2(OC(=O)c1ccco1)C(=O)CSc1cnc2ccccc2n1

$$$$
CHEMBL208996
  SciTegic08162514323D

 66 70  0  0  1  0            999 V2000
   -1.6120    3.1050    1.6990 F   0  0
   -2.2870    1.9540    1.3830 C   0  0
   -2.8800    1.4470    2.5100 F   0  0
   -3.2480    2.2310    0.4460 F   0  0
   -1.3050    0.9270    0.8170 C   0  0  2  0  0  0
   -0.2650    0.7500    1.7520 O   0  0
   -0.7510    1.5430   -0.4390 C   0  0
   -1.9560   -0.4330    0.5620 C   0  0
   -1.1110    1.1650   -1.5290 O   0  0
    0.1720    2.5440   -0.3270 N   0  0
   -0.9400   -1.5840    0.5530 C   0  0  1  0  0  0
    0.6160    3.1730   -1.4250 C   0  0
   -0.3400   -1.8170    1.9040 C   0  0
   -1.7500   -2.8070    0.1260 C   0  0
    0.1100   -1.3350   -0.5530 C   0  0
    1.9870    3.5220   -1.5440 C   0  0
   -0.2810    3.4940   -2.4780 C   0  0
    1.0580   -2.0760    2.0710 C   0  0
   -1.1770   -1.7950    3.0540 C   0  0
   -3.1820   -2.7600    0.6450 C   0  0
   -1.2340   -4.0990    0.7550 C   0  0
    1.2880   -2.3030   -0.4380 C   0  0
    2.4520    4.1880   -2.7070 C   0  0
    0.1820    4.1570   -3.6400 C   0  0
    1.5820   -2.2910    3.3720 C   0  0
    1.9900   -2.1210    0.9140 C   0  0
   -0.6420   -2.0130    4.3430 C   0  0
   -3.6420   -4.1880    0.3800 C   0  0
   -2.4370   -5.0440    0.7660 C   0  0
    1.5510    4.5010   -3.7460 C   0  0
    3.8840    4.5740   -2.8700 C   0  0
    0.7380   -2.2590    4.5020 C   0  0
    2.0990    5.1990   -4.9420 C   0  0
    4.2750    5.1800   -3.9410 N   0  0
    4.9020    4.2710   -1.8000 C   0  0
    1.4020    5.5050   -5.8820 O   0  0
    3.4040    5.5380   -5.0590 O   0  0
    0.5330    0.5190    1.2510 H   0  0
   -2.5290   -0.4180   -0.3650 H   0  0
   -2.7480   -0.6230    1.2870 H   0  0
    0.5180    2.8110    0.5720 H   0  0
   -1.7490   -2.8920   -0.9520 H   0  0
   -0.3440   -1.4110   -1.5430 H   0  0
    0.4890   -0.3140   -0.4780 H   0  0
    2.6800    3.2820   -0.7490 H   0  0
   -1.3290    3.2380   -2.4080 H   0  0
   -2.2360   -1.6120    2.9540 H   0  0
   -3.7880   -2.0320    0.1250 H   0  0
   -3.2110   -2.5340    1.7020 H   0  0
   -0.9030   -3.9200    1.7690 H   0  0
   -0.3980   -4.5090    0.2070 H   0  0
    0.9360   -3.3300   -0.5440 H   0  0
    1.9950   -2.1340   -1.2500 H   0  0
   -0.5110    4.3950   -4.4340 H   0  0
    2.6380   -2.4810    3.5060 H   0  0
    2.5580   -1.1900    0.9010 H   0  0
    2.7160   -2.9240    1.0460 H   0  0
   -1.2900   -1.9910    5.2070 H   0  0
   -4.5280   -4.4440    0.9420 H   0  0
   -3.8690   -4.3150   -0.6690 H   0  0
   -2.5650   -5.4720    1.7500 H   0  0
   -2.3090   -5.8620    0.0710 H   0  0
    1.1470   -2.4230    5.4880 H   0  0
    5.8860    4.6180   -2.1160 H   0  0
    4.5980    4.7300   -0.8590 H   0  0
    4.9630    3.1950   -1.6410 H   0  0
  1  2  1  0
  2  3  1  0
  2  4  1  0
  2  5  1  0
  5  6  1  0
  5  7  1  0
  5  8  1  0
  7  9  2  0
  7 10  1  0
 11  8  1  0
 10 12  1  0
 11 13  1  0
 11 14  1  0
 11 15  1  0
 12 16  2  0
 12 17  1  0
 13 18  2  0
 13 19  1  0
 14 20  1  0
 14 21  1  0
 15 22  1  0
 16 23  1  0
 17 24  2  0
 18 25  1  0
 18 26  1  0
 19 27  2  0
 20 28  1  0
 21 29  1  0
 23 30  2  0
 23 31  1  0
 25 32  2  0
 30 33  1  0
 31 34  2  0
 31 35  1  0
 33 36  2  0
 33 37  1  0
 22 26  1  0
 24 30  1  0
 27 32  1  0
 28 29  1  0
 34 37  1  0
  6 38  1  0
  8 39  1  0
  8 40  1  0
 10 41  1  0
 14 42  1  0
 15 43  1  0
 15 44  1  0
 16 45  1  0
 17 46  1  0
 19 47  1  0
 20 48  1  0
 20 49  1  0
 21 50  1  0
 21 51  1  0
 22 52  1  0
 22 53  1  0
 24 54  1  0
 25 55  1  0
 26 56  1  0
 26 57  1  0
 27 58  1  0
 28 59  1  0
 28 60  1  0
 29 61  1  0
 29 62  1  0
 32 63  1  0
 35 64  1  0
 35 65  1  0
 35 66  1  0
M  END
> <Name>
CHEMBL208996

> <IC50 nM>
8.13

> <Molecule_ChEMBL_ID>
CHEMBL208996

> <Smiles>
Cc1noc(=O)c2ccc(NC(=O)[C@](O)(C[C@@]3(C4CCCC4)CCCc4ccccc43)C(F)(F)F)cc12

$$$$
CHEMBL211266
  SciTegic08162514323D

 65 68  0  0  1  0            999 V2000
   -2.8000   -1.3720    2.3080 F   0  0
   -2.5940   -0.3150    1.4590 C   0  0
   -3.3760   -0.4660    0.3430 F   0  0
   -2.9270    0.8530    2.0950 F   0  0
   -1.1220   -0.2700    1.0470 C   0  0  3  0  0  0
   -0.4770   -1.3970    1.5950 O   0  0
   -0.4320    0.9820    1.5190 C   0  0
   -0.9330   -0.3000   -0.4700 C   0  0
   -1.0260    1.8150    2.1630 O   0  0
    0.8850    1.1630    1.2040 N   0  0
   -1.5700   -1.5330   -1.1220 C   0  0  3  0  0  0
    1.5520    2.2180    1.6930 C   0  0
   -0.4950   -2.3010   -1.8300 C   0  0
   -2.6960   -1.0740   -2.0750 C   0  0
   -2.2130   -2.3870   -0.0180 C   0  0
    2.7810    2.0330    2.3800 C   0  0
    1.0350    3.5310    1.5290 C   0  0
   -0.3710   -2.2860   -3.2560 C   0  0
    0.4400   -3.0550   -1.0690 C   0  0
   -2.1310   -0.4690   -3.3590 C   0  0
   -1.8720   -3.8720   -0.1460 C   0  0
    3.4820    3.1520    2.8960 C   0  0
    1.7340    4.6490    2.0420 C   0  0
    0.6680   -3.0240   -3.8800 C   0  0
   -1.3100   -1.5190   -4.1180 C   0  0
    1.4690   -3.7880   -1.7010 C   0  0
   -1.1950   -4.4320    1.1050 C   0  0
   -3.0640   -4.7150   -0.6000 C   0  0
    2.9580    4.4510    2.7250 C   0  0
    4.7750    3.0000    3.6250 C   0  0
    1.5820   -3.7720   -3.1070 C   0  0
    3.7410    5.5850    3.2890 C   0  0
    5.3890    4.0390    4.0830 N   0  0
    5.3940    1.6420    3.8440 C   0  0
    3.3700    6.7330    3.1880 O   0  0
    4.9110    5.4130    3.9470 O   0  0
   -0.4310   -2.0680    0.8960 H   0  0
   -1.3120    0.6160   -0.9240 H   0  0
    0.1240   -0.2310   -0.7270 H   0  0
    1.3510    0.5080    0.6100 H   0  0
   -3.3450   -0.3530   -1.5760 H   0  0
   -3.3340   -1.9200   -2.3390 H   0  0
   -1.9380   -2.0120    0.9680 H   0  0
   -3.2930   -2.2410    0.0030 H   0  0
    3.1850    1.0380    2.5100 H   0  0
    0.1000    3.6950    1.0100 H   0  0
    0.3740   -3.0770    0.0100 H   0  0
   -1.5090    0.3950   -3.1210 H   0  0
   -2.9400   -0.1030   -3.9920 H   0  0
   -1.2580   -4.0510   -1.0290 H   0  0
    1.3300    5.6430    1.9090 H   0  0
    0.7660   -3.0190   -4.9560 H   0  0
   -1.9890   -2.2300   -4.5900 H   0  0
   -0.7650   -1.0300   -4.9270 H   0  0
    2.1680   -4.3590   -1.1090 H   0  0
   -0.9630   -5.4920    1.0020 H   0  0
   -1.8400   -4.3160    1.9770 H   0  0
   -0.2630   -3.9050    1.3080 H   0  0
   -2.9210   -5.7610   -0.3290 H   0  0
   -3.9870   -4.3530   -0.1460 H   0  0
   -3.1820   -4.6640   -1.6820 H   0  0
    2.3690   -4.3320   -3.5920 H   0  0
    6.3380    1.6770    4.3870 H   0  0
    5.5790    1.1600    2.8840 H   0  0
    4.7090    1.0100    4.4080 H   0  0
  1  2  1  0
  2  3  1  0
  2  4  1  0
  2  5  1  0
  5  6  1  0
  5  7  1  0
  5  8  1  0
  7  9  2  0
  7 10  1  0
  8 11  1  0
 10 12  1  0
 11 13  1  0
 11 14  1  0
 11 15  1  0
 12 16  2  0
 12 17  1  0
 13 18  2  0
 13 19  1  0
 14 20  1  0
 15 21  1  0
 16 22  1  0
 17 23  2  0
 18 24  1  0
 18 25  1  0
 19 26  2  0
 21 27  1  0
 21 28  1  0
 22 29  2  0
 22 30  1  0
 24 31  2  0
 29 32  1  0
 30 33  2  0
 30 34  1  0
 32 35  2  0
 32 36  1  0
 20 25  1  0
 23 29  1  0
 26 31  1  0
 33 36  1  0
  6 37  1  0
  8 38  1  0
  8 39  1  0
 10 40  1  0
 14 41  1  0
 14 42  1  0
 15 43  1  0
 15 44  1  0
 16 45  1  0
 17 46  1  0
 19 47  1  0
 20 48  1  0
 20 49  1  0
 21 50  1  0
 23 51  1  0
 24 52  1  0
 25 53  1  0
 25 54  1  0
 26 55  1  0
 27 56  1  0
 27 57  1  0
 27 58  1  0
 28 59  1  0
 28 60  1  0
 28 61  1  0
 31 62  1  0
 34 63  1  0
 34 64  1  0
 34 65  1  0
M  END
> <Name>
CHEMBL211266

> <IC50 nM>
3.47

> <Molecule_ChEMBL_ID>
CHEMBL211266

> <Smiles>
Cc1noc(=O)c2ccc(NC(=O)C(O)(CC3(CC(C)C)CCCc4ccccc43)C(F)(F)F)cc12

$$$$
CHEMBL4074521
  SciTegic08162514323D

 76 81  0  0  1  0            999 V2000
    5.5090   -3.8750    3.2460 F   0  0
    4.7270   -4.3810    4.2530 C   0  0
    5.3810   -4.2450    5.4510 F   0  0
    3.3990   -3.6750    4.2940 C   0  0
    4.4510   -5.8610    3.9890 C   0  0
    2.3660   -4.2820    4.1320 O   0  0
    3.3790   -2.3280    4.5190 N   0  0
    2.0900   -1.6230    4.5640 C   0  0  2  0  0  0
    1.6610   -1.1740    3.1670 C   0  0  1  0  0  0
    2.1310   -0.4700    5.5680 C   0  0
    1.5970   -2.3020    2.3060 O   0  0
    0.3530   -0.5010    3.1910 C   0  0
    1.2190   -2.1030    1.0360 C   0  0
   -0.8300   -1.2600    3.3520 C   0  0
    0.2790    0.9060    3.0520 C   0  0
    0.6990   -3.1850    0.2760 C   0  0
    1.3380   -0.8120    0.4550 C   0  0
   -2.0880   -0.6140    3.3710 C   0  0
   -0.9770    1.5570    3.0870 C   0  0
    0.3020   -2.9620   -1.0680 C   0  0
    0.9410   -0.5940   -0.8870 C   0  0
   -3.2190   -1.3390    3.4940 O   0  0
   -2.1600    0.8020    3.2620 C   0  0
    0.4290   -1.6970   -1.6100 C   0  0
   -0.2130   -3.9660   -1.8700 C   0  0
   -4.4850   -0.7250    3.2210 C   0  0
   -3.3560    1.4230    3.3250 O   0  0
   -0.0380   -1.8750   -2.8720 N   0  0
   -0.4040   -3.1970   -3.0000 N   0  0
   -4.5020    0.7020    3.7950 C   0  0
   -0.1350   -0.9340   -3.8460 C   0  0
   -0.5920    0.3620   -3.5350 C   0  0
    0.2220   -1.2510   -5.1710 C   0  0
   -0.6910    1.3360   -4.5460 C   0  0
    0.1210   -0.2770   -6.1790 C   0  0
   -1.1750    2.7100   -4.2160 C   0  0
   -0.3340    1.0150   -5.8680 C   0  0
   -1.0860    3.1470   -3.0930 O   0  0
   -1.7240    3.4690   -5.2100 N   0  0
   -2.1620    4.8460   -4.9120 C   0  0  2  0  0  0
   -2.8930    5.5230   -6.0690 C   0  0
   -1.0120    5.8280   -4.6250 C   0  0
   -2.7360    6.8840   -5.7600 O   0  0
   -1.4140    7.1210   -5.3420 C   0  0
    5.3700   -6.4450    3.9440 H   0  0
    3.9270   -5.9930    3.0420 H   0  0
    3.8260   -6.2830    4.7760 H   0  0
    4.2340   -1.8270    4.6520 H   0  0
    1.3380   -2.2770    5.0060 H   0  0
    2.4150   -0.4890    2.7770 H   0  0
    2.4660   -0.8200    6.5440 H   0  0
    2.8020    0.3170    5.2230 H   0  0
    1.1400   -0.0320    5.6920 H   0  0
   -0.7780   -2.3350    3.4570 H   0  0
    1.1790    1.4890    2.9210 H   0  0
    0.6120   -4.1640    0.7270 H   0  0
    1.7330    0.0080    1.0370 H   0  0
   -1.0290    2.6310    2.9820 H   0  0
    1.0270    0.3830   -1.3400 H   0  0
   -0.4190   -5.0180   -1.7190 H   0  0
   -4.6260   -0.6980    2.1400 H   0  0
   -5.2750   -1.3440    3.6460 H   0  0
   -5.4010    1.2460    3.5090 H   0  0
   -4.4630    0.6700    4.8850 H   0  0
   -0.8680    0.6180   -2.5210 H   0  0
    0.5740   -2.2400   -5.4300 H   0  0
    0.3950   -0.5210   -7.1950 H   0  0
   -0.4080    1.7570   -6.6500 H   0  0
   -1.8250    3.0870   -6.1290 H   0  0
   -2.8180    4.8090   -4.0520 H   0  0
   -2.4220    5.3300   -7.0230 H   0  0
   -3.9400    5.2670   -6.1300 H   0  0
   -0.9040    5.9870   -3.5610 H   0  0
   -0.0590    5.4810   -5.0000 H   0  0
   -0.8010    7.2800   -6.2190 H   0  0
   -1.3700    8.0010   -4.7150 H   0  0
  1  2  1  0
  2  3  1  0
  2  4  1  0
  2  5  1  0
  4  6  2  0
  4  7  1  0
  7  8  1  0
  8  9  1  0
  8 10  1  0
  9 11  1  0
  9 12  1  0
 11 13  1  0
 12 14  2  0
 12 15  1  0
 13 16  2  0
 13 17  1  0
 14 18  1  0
 15 19  2  0
 16 20  1  0
 17 21  2  0
 18 22  1  0
 18 23  2  0
 20 24  2  0
 20 25  1  0
 22 26  1  0
 23 27  1  0
 24 28  1  0
 25 29  2  0
 26 30  1  0
 28 31  1  0
 31 32  2  0
 31 33  1  0
 32 34  1  0
 33 35  2  0
 34 36  1  0
 34 37  2  0
 36 38  2  0
 36 39  1  0
 40 39  1  0
 40 41  1  0
 40 42  1  0
 41 43  1  0
 42 44  1  0
 19 23  1  0
 21 24  1  0
 27 30  1  0
 28 29  1  0
 35 37  1  0
 43 44  1  0
  5 45  1  0
  5 46  1  0
  5 47  1  0
  7 48  1  0
  8 49  1  0
  9 50  1  0
 10 51  1  0
 10 52  1  0
 10 53  1  0
 14 54  1  0
 15 55  1  0
 16 56  1  0
 17 57  1  0
 19 58  1  0
 21 59  1  0
 25 60  1  0
 26 61  1  0
 26 62  1  0
 30 63  1  0
 30 64  1  0
 32 65  1  0
 33 66  1  0
 35 67  1  0
 37 68  1  0
 39 69  1  0
 40 70  1  0
 41 71  1  0
 41 72  1  0
 42 73  1  0
 42 74  1  0
 44 75  1  0
 44 76  1  0
M  END
> <Name>
CHEMBL4074521

> <IC50 nM>
24.3

> <Molecule_ChEMBL_ID>
CHEMBL4074521

> <Smiles>
C[C@H](NC(=O)C(C)(F)F)[C@@H](Oc1ccc2c(cnn2-c2cccc(C(=O)N[C@H]3CCOC3)c2)c1)c1ccc2c(c1)OCCO2

$$$$
CHEMBL2022866
  SciTegic08162514323D

 88 95  0  0  1  0            999 V2000
    5.0040   -0.1470   -2.1920 S   0  0
    6.5330   -0.5160   -1.5780 C   0  0
    4.0350   -0.0100   -0.7380 C   0  0
    6.7620   -0.6390   -0.2310 N   0  0
    7.6150   -0.7110   -2.4000 N   0  0
    2.6150    0.3240   -1.1130 C   0  0
    8.0780   -0.9320   -0.2110 C   0  0
    8.5900   -0.9770   -1.5080 C   0  0
    7.6860   -0.6470   -3.8690 C   0  0
    2.3500    0.7870   -2.1970 O   0  0
    1.5330    0.0640   -0.0920 C   0  0  2  0  0  0
    8.9120   -1.1740    0.9060 C   0  0
    9.9570   -1.2680   -1.7380 C   0  0
    7.1110   -1.8830   -4.5080 C   0  0
    1.2270   -1.3200   -0.1700 O   0  0
    0.2600    0.9240   -0.2680 C   0  0  2  0  0  0
    1.9510    0.3930    1.3550 C   0  0
   10.2810   -1.4690    0.6910 C   0  0
   10.8030   -1.5140   -0.6290 C   0  0
    6.5550   -1.7750   -5.7250 C   0  0
   -0.4370    0.7050    1.0820 C   0  0  1  0  0  0
   -0.7090    0.5350   -1.3990 C   0  0
    0.7050    2.3910   -0.4080 C   0  0
    0.7050    0.9300    2.0720 C   0  0
   -1.6950    1.5760    1.2440 C   0  0  1  0  0  0
   -2.0700    1.2600   -1.2970 C   0  0  1  0  0  0
   -2.7010    1.1560    0.1210 C   0  0  2  0  0  0
   -2.2560    1.4000    2.6840 C   0  0
   -1.9200    2.6130   -1.6840 O   0  0
   -4.0860    1.8530    0.3120 C   0  0  2  0  0  0
   -3.6820    1.9490    2.8530 C   0  0
   -4.4940    1.3870    1.7150 C   0  0
   -5.1290    1.5180   -0.8110 C   0  0
   -3.9120    3.3830    0.3180 C   0  0
   -5.4530    0.4590    1.9280 C   0  0
   -5.9530    0.2680   -0.5510 C   0  0
   -6.1000   -0.1600    0.7580 C   0  0
   -6.6090   -0.4920   -1.5160 C   0  0
   -6.9280   -1.2310    0.6090 N   0  0
   -7.2050   -1.4120   -0.7090 N   0  0
   -7.4060   -2.0080    1.6150 C   0  0
   -8.7680   -2.3670    1.6460 C   0  0
   -6.5410   -2.4590    2.6330 C   0  0
   -9.2600   -3.1740    2.6870 C   0  0
   -7.0370   -3.2640    3.6720 C   0  0
   -8.3950   -3.6210    3.6990 C   0  0
    4.0630   -0.9510   -0.1930 H   0  0
    4.4430    0.7750   -0.1020 H   0  0
    8.7230   -0.5200   -4.1780 H   0  0
    7.1510    0.2340   -4.2210 H   0  0
    8.5180   -1.1390    1.9120 H   0  0
   10.3540   -1.3030   -2.7420 H   0  0
    7.0980   -2.8730   -4.0780 H   0  0
    2.0060   -1.8030    0.1460 H   0  0
    2.7170    1.1560    1.3710 H   0  0
    2.3650   -0.4610    1.8770 H   0  0
   10.9320   -1.6560    1.5310 H   0  0
   11.8480   -1.7380   -0.7890 H   0  0
    6.1000   -2.5670   -6.3050 H   0  0
    6.5700   -0.7850   -6.1560 H   0  0
   -0.7440   -0.3300    1.1660 H   0  0
   -0.9080   -0.5350   -1.3650 H   0  0
   -0.2500    0.7170   -2.3710 H   0  0
    1.5020    2.6410    0.2910 H   0  0
   -0.1290    3.0640   -0.2190 H   0  0
    1.0700    2.5880   -1.4160 H   0  0
    0.8180    1.9820    2.2870 H   0  0
    0.5250    0.4280    3.0120 H   0  0
   -1.4370    2.6290    1.1150 H   0  0
   -2.7290    0.8030   -2.0310 H   0  0
   -2.8810    0.0860    0.2540 H   0  0
   -1.5940    1.8810    3.4020 H   0  0
   -2.2640    0.3400    2.9410 H   0  0
   -1.6820    2.6150   -2.6250 H   0  0
   -3.6890    3.0410    2.8300 H   0  0
   -4.0960    1.6540    3.8180 H   0  0
   -5.8570    2.3280   -0.8670 H   0  0
   -4.6800    1.4820   -1.8010 H   0  0
   -4.8110    3.8710    0.6950 H   0  0
   -3.0630    3.6720    0.9370 H   0  0
   -3.7310    3.7520   -0.6910 H   0  0
   -5.7210    0.1540    2.9320 H   0  0
   -6.6660   -0.4120   -2.5920 H   0  0
   -9.4490   -2.0330    0.8750 H   0  0
   -5.4920   -2.1950    2.6290 H   0  0
  -10.3050   -3.4470    2.7090 H   0  0
   -6.3730   -3.6090    4.4510 H   0  0
   -8.7760   -4.2400    4.5000 H   0  0
  1  2  1  0
  1  3  1  0
  2  4  2  0
  2  5  1  0
  3  6  1  0
  4  7  1  0
  5  8  1  0
  5  9  1  0
  6 10  2  0
  6 11  1  0
  7 12  1  0
  8 13  1  0
  9 14  1  0
 11 15  1  0
 11 16  1  0
 11 17  1  0
 12 18  2  0
 13 19  2  0
 14 20  2  0
 16 21  1  0
 16 22  1  0
 16 23  1  0
 17 24  1  0
 21 25  1  0
 22 26  1  0
 27 25  1  0
 25 28  1  0
 26 29  1  0
 27 30  1  0
 28 31  1  0
 30 32  1  0
 30 33  1  0
 30 34  1  0
 32 35  2  0
 33 36  1  0
 35 37  1  0
 36 38  1  0
 37 39  1  0
 38 40  2  0
 39 41  1  0
 41 42  2  0
 41 43  1  0
 42 44  1  0
 43 45  2  0
 44 46  2  0
  7  8  2  0
 18 19  1  0
 21 24  1  0
 26 27  1  0
 31 32  1  0
 36 37  2  0
 39 40  1  0
 45 46  1  0
  3 47  1  0
  3 48  1  0
  9 49  1  0
  9 50  1  0
 12 51  1  0
 13 52  1  0
 14 53  1  0
 15 54  1  0
 17 55  1  0
 17 56  1  0
 18 57  1  0
 19 58  1  0
 20 59  1  0
 20 60  1  0
 21 61  1  0
 22 62  1  0
 22 63  1  0
 23 64  1  0
 23 65  1  0
 23 66  1  0
 24 67  1  0
 24 68  1  0
 25 69  1  0
 26 70  1  0
 27 71  1  0
 28 72  1  0
 28 73  1  0
 29 74  1  0
 31 75  1  0
 31 76  1  0
 33 77  1  0
 33 78  1  0
 34 79  1  0
 34 80  1  0
 34 81  1  0
 35 82  1  0
 38 83  1  0
 42 84  1  0
 43 85  1  0
 44 86  1  0
 45 87  1  0
 46 88  1  0
M  END
> <Name>
CHEMBL2022866

> <IC50 nM>
3.43

> <Molecule_ChEMBL_ID>
CHEMBL2022866

> <Smiles>
C=CCn1c(SCC(=O)[C@@]2(O)CC[C@H]3[C@@H]4CCC5=Cc6c(cnn6-c6ccccc6)C[C@]5(C)[C@H]4[C@@H](O)C[C@@]32C)nc2ccccc21

$$$$
CHEMBL5274425
  SciTegic08162514323D

 47 50  0  0  0  0            999 V2000
    2.4430   -2.5510    1.5450 S   0  0
    3.7520   -3.1720    1.6350 O   0  0
    1.6110   -2.7950    2.7090 O   0  0
    2.6720   -0.9490    1.4360 N   0  0
    1.6370   -3.1840    0.1580 C   0  0
    1.6190   -0.1290    1.3070 C   0  0
    1.9490   -2.6910   -1.1210 C   0  0
    0.6660   -4.1920    0.3120 C   0  0
    0.3030   -0.6480    1.2930 C   0  0
    1.8110    1.2660    1.1800 C   0  0
    1.2930   -3.2070   -2.2520 C   0  0
    0.0080   -4.7090   -0.8180 C   0  0
   -0.8180    0.2110    1.1540 C   0  0
    0.7010    2.1310    1.0430 C   0  0
    0.3240   -4.2150   -2.0940 C   0  0
   -0.6330    1.6250    1.0290 C   0  0
   -2.1780   -0.3910    1.1480 C   0  0
   -0.3280   -4.7270   -3.2150 N   0  3
   -1.7110    2.4650    0.8980 N   0  0
   -3.1910    0.4960    0.4220 C   0  0
   -0.0180   -4.2660   -4.2910 O   0  0
   -1.1660   -5.6060   -3.0200 O   0  5
   -1.5630    3.8220    0.7420 C   0  0
   -3.1070    1.9410    0.9260 C   0  0
   -2.2660    4.5900    1.3550 O   0  0
   -0.5550    4.3300   -0.1760 C   0  0
   -0.0720    5.5860    0.0370 O   0  0
    0.0160    3.6970   -1.2850 C   0  0
    0.8340    5.7520   -0.9730 C   0  0
    0.9180    4.6270   -1.8030 C   0  0
    3.5980   -0.5740    1.4650 H   0  0
    2.6950   -1.9180   -1.2360 H   0  0
    0.4280   -4.5680    1.2950 H   0  0
    0.1390   -1.7130    1.3910 H   0  0
    2.8050    1.6890    1.1860 H   0  0
    1.5310   -2.8320   -3.2360 H   0  0
   -0.7360   -5.4830   -0.7030 H   0  0
    0.9060    3.1880    0.9510 H   0  0
   -2.1600   -1.3770    0.6820 H   0  0
   -2.4920   -0.5390    2.1840 H   0  0
   -3.0020    0.4690   -0.6520 H   0  0
   -4.2010    0.1070    0.5620 H   0  0
   -3.7540    2.5740    0.3160 H   0  0
   -3.4790    2.0020    1.9490 H   0  0
   -0.1970    2.7050   -1.6600 H   0  0
    1.4120    6.6580   -1.1060 H   0  0
    1.5570    4.5040   -2.6680 H   0  0
  1  2  2  0
  1  3  2  0
  1  4  1  0
  1  5  1  0
  4  6  1  0
  5  7  2  0
  5  8  1  0
  6  9  2  0
  6 10  1  0
  7 11  1  0
  8 12  2  0
  9 13  1  0
 10 14  2  0
 11 15  2  0
 13 16  2  0
 13 17  1  0
 15 18  1  0
 16 19  1  0
 17 20  1  0
 18 21  2  0
 18 22  1  0
 19 23  1  0
 19 24  1  0
 23 25  2  0
 23 26  1  0
 26 27  1  0
 26 28  2  0
 27 29  1  0
 28 30  1  0
 12 15  1  0
 14 16  1  0
 20 24  1  0
 29 30  2  0
  4 31  1  0
  7 32  1  0
  8 33  1  0
  9 34  1  0
 10 35  1  0
 11 36  1  0
 12 37  1  0
 14 38  1  0
 17 39  1  0
 17 40  1  0
 20 41  1  0
 20 42  1  0
 24 43  1  0
 24 44  1  0
 28 45  1  0
 29 46  1  0
 30 47  1  0
M  CHG  2  18   1  22  -1
M  END
> <Name>
CHEMBL5274425

> <IC50 nM>
4270

> <Molecule_ChEMBL_ID>
CHEMBL5274425

> <Smiles>
O=C(c1ccco1)N1CCCc2cc(NS(=O)(=O)c3ccc([N+](=O)[O-])cc3)ccc21

$$$$
CHEMBL5266318
  SciTegic08162514323D

 58 62  0  0  0  0            999 V2000
    6.0650    2.4840    2.8140 Cl  0  0
    5.1950    1.4430    1.7640 C   0  0
    5.1640    1.7050    0.3790 C   0  0
    4.5160    0.3260    2.2810 C   0  0
    4.4530    0.8520   -0.4830 C   0  0
    3.8050   -0.5270    1.4180 C   0  0
    3.7750   -0.2640    0.0390 C   0  0
    2.9040   -1.3130   -1.0200 S   0  0
    3.6800   -2.5290   -1.1970 O   0  0
    2.6580   -0.6050   -2.2640 O   0  0
    1.4670   -1.7360   -0.4060 N   0  0
    1.2990   -3.1520    0.3630 S   0  0
    0.4140   -0.9160   -0.5370 C   0  0
    0.7540   -4.1060   -0.5880 O   0  0
    2.6070   -3.5330    0.8670 O   0  0
    0.2150   -3.0390    1.6990 C   0  0
   -0.9020   -1.4360   -0.5490 C   0  0
    0.6060    0.4790   -0.6620 C   0  0
   -0.7560   -4.0350    1.9020 C   0  0
    0.3030   -1.9490    2.5840 C   0  0
   -2.0210   -0.5760   -0.6880 C   0  0
   -0.5020    1.3440   -0.7990 C   0  0
   -1.6390   -3.9430    2.9920 C   0  0
   -0.5800   -1.8570    3.6720 C   0  0
   -1.8360    0.8380   -0.8150 C   0  0
   -3.3810   -1.1780   -0.6920 C   0  0
   -1.5530   -2.8540    3.8790 C   0  0
   -2.9140    1.6780   -0.9470 N   0  0
   -4.3930   -0.2910   -1.4260 C   0  0
   -2.6290   -2.7420    5.2090 Cl  0  0
   -2.7680    3.0350   -1.1100 C   0  0
   -4.3110    1.1520   -0.9140 C   0  0
   -3.4820    3.8010   -0.5100 O   0  0
   -1.7440    3.5450   -2.0100 C   0  0
   -1.3440    2.7440   -3.0370 O   0  0
   -1.0880    4.7750   -1.9790 C   0  0
   -0.4000    3.4980   -3.6760 C   0  0
   -0.2130    4.7440   -3.0650 C   0  0
    5.6800    2.5610   -0.0310 H   0  0
    4.5310    0.1130    3.3400 H   0  0
    4.4320    1.0530   -1.5430 H   0  0
    3.2810   -1.3850    1.8180 H   0  0
   -1.0660   -2.5000   -0.4530 H   0  0
    1.6000    0.9020   -0.6560 H   0  0
   -0.8240   -4.8710    1.2210 H   0  0
    1.0490   -1.1860    2.4280 H   0  0
   -0.2970    2.4020   -0.8930 H   0  0
   -2.3810   -4.7170    3.1370 H   0  0
   -0.5040   -1.0140    4.3440 H   0  0
   -3.3670   -2.1660   -1.1540 H   0  0
   -3.6990   -1.3180    0.3420 H   0  0
   -4.1950   -0.3130   -2.4980 H   0  0
   -5.4020   -0.6800   -1.2910 H   0  0
   -4.9670    1.7890   -1.5140 H   0  0
   -4.6740    1.2050    0.1130 H   0  0
   -1.2270    5.5800   -1.2680 H   0  0
    0.1330    3.1580   -4.5550 H   0  0
    0.4730    5.5240   -3.3730 H   0  0
  1  2  1  0
  2  3  2  0
  2  4  1  0
  3  5  1  0
  4  6  2  0
  5  7  2  0
  7  8  1  0
  8  9  2  0
  8 10  2  0
  8 11  1  0
 11 12  1  0
 11 13  1  0
 12 14  2  0
 12 15  2  0
 12 16  1  0
 13 17  2  0
 13 18  1  0
 16 19  2  0
 16 20  1  0
 17 21  1  0
 18 22  2  0
 19 23  1  0
 20 24  2  0
 21 25  2  0
 21 26  1  0
 23 27  2  0
 25 28  1  0
 26 29  1  0
 27 30  1  0
 28 31  1  0
 28 32  1  0
 31 33  2  0
 31 34  1  0
 34 35  1  0
 34 36  2  0
 35 37  1  0
 36 38  1  0
  6  7  1  0
 22 25  1  0
 24 27  1  0
 29 32  1  0
 37 38  2  0
  3 39  1  0
  4 40  1  0
  5 41  1  0
  6 42  1  0
 17 43  1  0
 18 44  1  0
 19 45  1  0
 20 46  1  0
 22 47  1  0
 23 48  1  0
 24 49  1  0
 26 50  1  0
 26 51  1  0
 29 52  1  0
 29 53  1  0
 32 54  1  0
 32 55  1  0
 36 56  1  0
 37 57  1  0
 38 58  1  0
M  END
> <Name>
CHEMBL5266318

> <IC50 nM>
3960

> <Molecule_ChEMBL_ID>
CHEMBL5266318

> <Smiles>
O=C(c1ccco1)N1CCCc2cc(N(S(=O)(=O)c3ccc(Cl)cc3)S(=O)(=O)c3ccc(Cl)cc3)ccc21

$$$$
CHEMBL3261173
  SciTegic08162514323D

 52 54  0  0  1  0            999 V2000
   -2.6580   -0.9550   -0.2110 S   0  0
   -3.9860   -0.3750   -0.2910 O   0  0
   -2.3590   -1.8590   -1.3070 O   0  0
   -1.5450    0.3750   -0.3690 N   0  0
   -2.5370   -1.8380    1.2700 C   0  0
   -1.4980    1.0760   -1.6410 C   0  0  2  0  0  0
   -3.6880   -2.4160    1.8380 C   0  0
   -1.2890   -1.9760    1.9060 C   0  0
   -0.2480    1.9510   -1.7230 C   0  0
   -2.7890    1.8670   -1.8630 C   0  0
   -3.5880   -3.1350    3.0430 C   0  0
   -5.0080   -2.2730    1.1720 C   0  0
   -1.1930   -2.6950    3.1110 C   0  0
   -0.0700   -1.3670    1.3120 C   0  0
    0.9710    1.1310   -1.7230 N   0  0
   -2.3420   -3.2750    3.6800 C   0  0
    2.1760    1.7170   -1.7770 C   0  0
   -2.2380   -4.0330    4.9530 C   0  0
    3.3550    0.9300   -1.7680 C   0  0
    2.2790    3.1310   -1.8440 C   0  0
    4.6270    1.5530   -1.8240 C   0  0
    3.5430    3.7620   -1.9040 C   0  0
    4.7210    2.9770   -1.8950 C   0  0
    5.8160    0.7760   -1.8130 C   0  0
    6.0040    3.5820   -1.9550 C   0  0
    7.0680    1.4380   -1.8710 C   0  0
    7.1520    2.8150   -1.9410 N   0  0
   -1.7270    1.0650    0.3730 H   0  0
   -1.4340    0.2440   -2.3400 H   0  0
   -0.2090    2.6510   -0.8870 H   0  0
   -0.2660    2.5670   -2.6230 H   0  0
   -3.6370    1.1950   -1.9880 H   0  0
   -2.9830    2.5310   -1.0200 H   0  0
   -2.7130    2.4830   -2.7600 H   0  0
   -4.4710   -3.5800    3.4800 H   0  0
   -4.9900   -2.4530    0.0960 H   0  0
   -5.3930   -1.2670    1.3340 H   0  0
   -5.7170   -2.9760    1.6130 H   0  0
   -0.2360   -2.8030    3.6020 H   0  0
    0.0060   -1.4800    0.2300 H   0  0
    0.8160   -1.8160    1.7600 H   0  0
   -0.0530   -0.3010    1.5370 H   0  0
    0.9020    0.1330   -1.6840 H   0  0
   -1.2310   -4.0840    5.3650 H   0  0
   -2.5860   -5.0550    4.7970 H   0  0
   -2.8830   -3.5760    5.7030 H   0  0
    3.2870   -0.1500   -1.7170 H   0  0
    1.3910    3.7480   -1.8500 H   0  0
    3.5960    4.8400   -1.9570 H   0  0
    5.7810   -0.3050   -1.7580 H   0  0
    6.1000    4.6560   -2.0100 H   0  0
    7.9750    0.8520   -1.8630 H   0  0
  1  2  2  0
  1  3  2  0
  1  4  1  0
  1  5  1  0
  4  6  1  0
  5  7  2  0
  5  8  1  0
  6  9  1  0
  6 10  1  0
  7 11  1  0
  7 12  1  0
  8 13  2  0
  8 14  1  0
  9 15  1  0
 11 16  2  0
 15 17  1  0
 16 18  1  0
 17 19  2  0
 17 20  1  0
 19 21  1  0
 20 22  2  0
 21 23  1  0
 21 24  2  0
 23 25  2  0
 24 26  1  0
 25 27  1  0
 13 16  1  0
 22 23  1  0
 26 27  2  0
  4 28  1  0
  6 29  1  0
  9 30  1  0
  9 31  1  0
 10 32  1  0
 10 33  1  0
 10 34  1  0
 11 35  1  0
 12 36  1  0
 12 37  1  0
 12 38  1  0
 13 39  1  0
 14 40  1  0
 14 41  1  0
 14 42  1  0
 15 43  1  0
 18 44  1  0
 18 45  1  0
 18 46  1  0
 19 47  1  0
 20 48  1  0
 22 49  1  0
 24 50  1  0
 25 51  1  0
 26 52  1  0
M  END
> <Name>
CHEMBL3261173

> <IC50 nM>
10000

> <Molecule_ChEMBL_ID>
CHEMBL3261173

> <Smiles>
Cc1cc(C)c(S(=O)(=O)N[C@@H](C)CNc2ccc3cnccc3c2)c(C)c1

$$$$
CHEMBL3261426
  SciTegic08162514323D

 71 75  0  0  1  0            999 V2000
    3.7540   -2.5880   -0.5230 S   0  0
    4.7270   -3.6470   -0.7320 O   0  0
    2.6600   -2.6210   -1.4790 O   0  0
    3.0410   -2.8930    1.0330 N   0  0
    4.5550   -1.0840   -0.6740 C   0  0
    2.0120   -1.9830    1.5020 C   0  0  2  0  0  0
    5.6080   -0.6330    0.1410 C   0  0
    4.2660   -0.0960   -1.6350 C   0  0
    0.7720   -2.0720    0.6110 C   0  0
    2.5610   -0.5590    1.6070 C   0  0
    5.9160    0.5880   -0.3420 N   0  0
    6.2930   -1.3030    1.3120 C   0  0
    5.1330    0.9100   -1.3830 N   0  0
    3.2250   -0.0980   -2.7360 C   0  0
   -0.4180   -1.5630    1.3090 N   0  0
    5.2170    2.1760   -2.1330 C   0  0
   -1.6050   -1.5240    0.6740 C   0  0
    6.3190    3.1020   -1.6210 C   0  0
    3.9450    3.0290   -2.0450 C   0  0
   -2.7010   -0.9810    1.4260 C   0  0
   -1.7990   -1.9830   -0.6560 C   0  0
    5.9120    4.4280   -2.2500 C   0  0
    4.4240    4.4790   -1.9320 C   0  0
   -3.9390   -0.9240    0.8050 C   0  0
   -2.6310   -0.5000    2.7340 C   0  0
   -3.0840   -1.9040   -1.2480 C   0  0
   -4.7320   -0.3770    1.7620 N   0  0
   -4.1740   -1.3710   -0.5180 C   0  0
   -3.9530   -0.1390    2.8690 N   0  0
   -6.0590   -0.1020    1.6640 C   0  0
   -6.5640    1.1210    2.1450 C   0  0
   -6.9340   -1.0410    1.0820 C   0  0
   -7.9390    1.4020    2.0410 C   0  0
   -8.3050   -0.7560    0.9800 C   0  0
   -8.8130    0.4670    1.4610 C   0  0
  -10.1000    0.7320    1.3650 O   0  0
  -10.8180    0.1620    0.2810 C   0  0
  -11.9610    0.8870    0.0590 F   0  0
  -11.1520   -1.1330    0.5860 F   0  0
  -10.0390    0.1800   -0.8460 F   0  0
    2.6620   -3.8500    1.0570 H   0  0
    1.8030   -2.3890    2.4920 H   0  0
    0.5920   -3.1020    0.3030 H   0  0
    0.9180   -1.5060   -0.3110 H   0  0
    3.5370   -0.5590    2.0900 H   0  0
    2.6510   -0.1070    0.6190 H   0  0
    1.8950    0.0680    2.1990 H   0  0
    7.1150   -0.7290    1.7400 H   0  0
    6.6920   -2.2680    0.9960 H   0  0
    5.5670   -1.4860    2.1040 H   0  0
    2.9470   -1.0900   -3.0900 H   0  0
    3.5980    0.4690   -3.5900 H   0  0
    2.3190    0.3940   -2.3810 H   0  0
   -0.3440   -1.2440    2.2540 H   0  0
    5.4140    1.9430   -3.1720 H   0  0
    7.3030    2.7850   -1.9380 H   0  0
    6.3170    3.1780   -0.5430 H   0  0
    3.3300    2.7810   -1.1910 H   0  0
    3.3380    2.8890   -2.9280 H   0  0
   -0.9760   -2.3910   -1.2250 H   0  0
    6.0800    4.4160   -3.3180 H   0  0
    6.4510    5.2660   -1.8320 H   0  0
    3.8890    5.1430   -2.5940 H   0  0
    4.2780    4.8380   -0.9220 H   0  0
   -1.8320   -0.4120    3.4610 H   0  0
   -3.2340   -2.2520   -2.2600 H   0  0
   -5.1560   -1.3090   -0.9630 H   0  0
   -5.9120    1.8550    2.5940 H   0  0
   -6.5640   -1.9860    0.7070 H   0  0
   -8.3220    2.3420    2.4120 H   0  0
   -8.9730   -1.4790    0.5330 H   0  0
  1  2  2  0
  1  3  2  0
  1  4  1  0
  1  5  1  0
  4  6  1  0
  5  7  1  0
  5  8  2  0
  6  9  1  0
  6 10  1  0
  7 11  2  0
  7 12  1  0
  8 13  1  0
  8 14  1  0
  9 15  1  0
 13 16  1  0
 15 17  1  0
 16 18  1  0
 16 19  1  0
 17 20  2  0
 17 21  1  0
 18 22  1  0
 19 23  1  0
 20 24  1  0
 20 25  1  0
 21 26  2  0
 24 27  1  0
 24 28  2  0
 25 29  2  0
 27 30  1  0
 30 31  2  0
 30 32  1  0
 31 33  1  0
 32 34  2  0
 33 35  2  0
 35 36  1  0
 36 37  1  0
 37 38  1  0
 37 39  1  0
 37 40  1  0
 11 13  1  0
 22 23  1  0
 26 28  1  0
 27 29  1  0
 34 35  1  0
  4 41  1  0
  6 42  1  0
  9 43  1  0
  9 44  1  0
 10 45  1  0
 10 46  1  0
 10 47  1  0
 12 48  1  0
 12 49  1  0
 12 50  1  0
 14 51  1  0
 14 52  1  0
 14 53  1  0
 15 54  1  0
 16 55  1  0
 18 56  1  0
 18 57  1  0
 19 58  1  0
 19 59  1  0
 21 60  1  0
 22 61  1  0
 22 62  1  0
 23 63  1  0
 23 64  1  0
 25 65  1  0
 26 66  1  0
 28 67  1  0
 31 68  1  0
 32 69  1  0
 33 70  1  0
 34 71  1  0
M  END
> <Name>
CHEMBL3261426

> <IC50 nM>
12

> <Molecule_ChEMBL_ID>
CHEMBL3261426

> <Smiles>
Cc1nn(C2CCCC2)c(C)c1S(=O)(=O)N[C@@H](C)CNc1cccc2c1cnn2-c1ccc(OC(F)(F)F)cc1

$$$$
CHEMBL3263758
  SciTegic08162514323D

 51 54  0  0  1  0            999 V2000
   -2.7720   -3.1450   -4.6500 Cl  0  0
   -1.2150   -2.5530   -4.2050 C   0  0
   -0.1060   -2.6020   -5.0840 C   0  0
   -1.0470   -2.0040   -2.9180 C   0  0
   -0.2270   -3.1540   -6.4120 C   0  0
    1.1480   -2.1060   -4.6780 C   0  0
    0.2070   -1.5080   -2.5100 C   0  0
   -0.3220   -3.6020   -7.4790 N   0  0
    1.3030   -1.5610   -3.3930 C   0  0
    0.3610   -0.9770   -1.2580 N   0  0
   -0.4360   -1.1740   -0.3540 N   0  0
    1.4840   -0.1270   -0.8710 C   0  0  1  0  0  0
   -0.1250   -0.6020    0.7560 C   0  0
    1.5760    1.1580   -1.6860 C   0  0
    1.1640    0.1660    0.5880 C   0  0
   -0.9060   -0.6680    2.0250 C   0  0
    2.6800    2.0780   -1.1700 C   0  0
    0.3070    2.0080   -1.5960 C   0  0
   -0.4450   -0.0020    3.1230 N   0  0
   -2.1020   -1.4140    2.0720 C   0  0
    2.2710    3.4080   -1.7890 C   0  0
    0.7830    3.4570   -1.4730 C   0  0
   -1.1430   -0.0470    4.2970 C   0  0
   -2.8300   -1.4710    3.2730 C   0  0
   -0.6740    0.6050    5.3420 O   0  0
   -2.3460   -0.7790    4.3990 C   0  0
    0.5530    1.3070    5.1930 C   0  0
   -3.1060   -0.8280    5.6860 C   0  0
   -2.7050   -0.2400    6.6640 O   0  0
   -4.2230   -1.5490    5.6560 O   0  0
   -1.8890   -1.9650   -2.2420 H   0  0
    2.0020   -2.1370   -5.3420 H   0  0
    2.2710   -1.1860   -3.1000 H   0  0
    2.4060   -0.6880   -0.9510 H   0  0
    1.7730    0.9140   -2.7210 H   0  0
    1.0120    1.2170    0.7910 H   0  0
    1.9260   -0.2130    1.2560 H   0  0
    3.6620    1.7600   -1.4860 H   0  0
    2.6740    2.1410   -0.0900 H   0  0
   -0.2990    1.7440   -0.7400 H   0  0
   -0.3050    1.8690   -2.4770 H   0  0
   -2.4610   -1.9380    1.1990 H   0  0
    2.4370    3.3980   -2.8570 H   0  0
    2.8110    4.2440   -1.3690 H   0  0
    0.2480    4.1230   -2.1350 H   0  0
    0.6310    3.8110   -0.4610 H   0  0
   -3.7480   -2.0390    3.3220 H   0  0
    0.7500    1.8480    6.1190 H   0  0
    1.3160    0.5980    4.8770 H   0  0
    0.4320    2.0430    4.3990 H   0  0
   -4.7580   -1.6190    6.4570 H   0  0
  1  2  1  0
  2  3  2  0
  2  4  1  0
  3  5  1  0
  3  6  1  0
  4  7  2  0
  5  8  3  0
  6  9  2  0
  7 10  1  0
 10 11  1  0
 10 12  1  0
 11 13  2  0
 12 14  1  0
 12 15  1  0
 13 16  1  0
 14 17  1  0
 14 18  1  0
 16 19  2  0
 16 20  1  0
 17 21  1  0
 18 22  1  0
 19 23  1  0
 20 24  2  0
 23 25  1  0
 23 26  2  0
 25 27  1  0
 26 28  1  0
 28 29  2  0
 28 30  1  0
  7  9  1  0
 13 15  1  0
 21 22  1  0
 24 26  1  0
  4 31  1  0
  6 32  1  0
  9 33  1  0
 12 34  1  0
 14 35  1  0
 15 36  1  0
 15 37  1  0
 17 38  1  0
 17 39  1  0
 18 40  1  0
 18 41  1  0
 20 42  1  0
 21 43  1  0
 21 44  1  0
 22 45  1  0
 22 46  1  0
 24 47  1  0
 27 48  1  0
 27 49  1  0
 27 50  1  0
 30 51  1  0
M  END
> <Name>
CHEMBL3263758

> <IC50 nM>
10000

> <Molecule_ChEMBL_ID>
CHEMBL3263758

> <Smiles>
COc1nc(C2=NN(c3ccc(C#N)c(Cl)c3)[C@@H](C3CCCC3)C2)ccc1C(=O)O

$$$$
CHEMBL4087413
  SciTegic08162514323D

 63 66  0  0  0  0            999 V2000
    1.0800    1.5630   -0.8610 S   0  0
    2.4960    1.8710   -0.9650 O   0  0
    0.3830    1.6410   -2.1330 O   0  0
    0.9530    0.0370   -0.3280 N   0  0
    0.3570    2.6900    0.2250 C   0  0
    1.5140   -0.9860   -1.0430 C   0  0
    0.2340   -0.2460    0.9240 C   0  0
    1.0880    3.1700    1.3260 C   0  0
   -0.9610    3.1270    0.0080 C   0  0
    1.4450   -2.3070   -0.5570 C   0  0
    2.1580   -0.7240   -2.2660 C   0  0
   -1.0510   -0.9490    0.6700 C   0  0
    0.4980    4.0900    2.2110 C   0  0
   -1.5490    4.0450    0.8930 C   0  0
    2.0210   -3.3570   -1.2910 C   0  0
    2.7340   -1.7770   -2.9980 C   0  0
   -1.9450   -0.4530   -0.2950 C   0  0
   -1.3730   -2.1090    1.3950 C   0  0
   -0.8200    4.5280    1.9940 C   0  0
    2.6660   -3.0960   -2.5140 C   0  0
   -3.1600   -1.1170   -0.5350 C   0  0
   -2.5880   -2.7730    1.1540 C   0  0
   -1.4430    5.5000    2.9320 C   0  0
    3.2070   -4.0820   -3.2010 O   0  0
   -3.4830   -2.2770    0.1890 C   0  0
   -0.8280    5.4100    4.3280 C   0  0
   -2.9670    5.3690    2.9470 C   0  0
   -0.9650    6.7270    2.1540 C   0  0
    2.5900   -5.2460   -3.2010 C   0  0
    1.1840   -5.3010   -3.2010 C   0  0
    3.3320   -6.4390   -3.2010 C   0  0
    0.5250   -6.5430   -3.2010 C   0  0
    2.6760   -7.6820   -3.2010 C   0  0
    1.2710   -7.7340   -3.2010 C   0  0
    0.0390    0.6920    1.4450 H   0  0
    0.8630   -0.8610    1.5660 H   0  0
    2.1020    2.8340    1.4920 H   0  0
   -1.5220    2.7580   -0.8380 H   0  0
    0.9530   -2.5290    0.3810 H   0  0
    2.2210    0.2810   -2.6560 H   0  0
    1.0640    4.4550    3.0550 H   0  0
   -2.5630    4.3790    0.7210 H   0  0
    1.9670   -4.3670   -0.9140 H   0  0
    3.2280   -1.5720   -3.9360 H   0  0
   -1.7050    0.4400   -0.8550 H   0  0
   -0.6920   -2.4960    2.1370 H   0  0
   -3.8480   -0.7360   -1.2750 H   0  0
   -2.8360   -3.6660    1.7110 H   0  0
   -4.4160   -2.7890    0.0060 H   0  0
   -1.3750    6.0140    5.0530 H   0  0
    0.2050    5.7580    4.3170 H   0  0
   -0.8300    4.3810    4.6840 H   0  0
   -3.4160    5.7400    2.0270 H   0  0
   -3.3930    5.9320    3.7770 H   0  0
   -3.2620    4.3260    3.0660 H   0  0
    0.1230    6.7480    2.1000 H   0  0
   -1.3730    6.7250    1.1430 H   0  0
   -1.2930    7.6450    2.6430 H   0  0
    0.6070   -4.3890   -3.2010 H   0  0
    4.4120   -6.4040   -3.2010 H   0  0
   -0.5550   -6.5820   -3.2010 H   0  0
    3.2500   -8.5980   -3.2010 H   0  0
    0.7660   -8.6880   -3.2010 H   0  0
  1  2  2  0
  1  3  2  0
  1  4  1  0
  1  5  1  0
  4  6  1  0
  4  7  1  0
  5  8  2  0
  5  9  1  0
  6 10  2  0
  6 11  1  0
  7 12  1  0
  8 13  1  0
  9 14  2  0
 10 15  1  0
 11 16  2  0
 12 17  2  0
 12 18  1  0
 13 19  2  0
 15 20  2  0
 17 21  1  0
 18 22  2  0
 19 23  1  0
 20 24  1  0
 21 25  2  0
 23 26  1  0
 23 27  1  0
 23 28  1  0
 24 29  1  0
 29 30  2  0
 29 31  1  0
 30 32  1  0
 31 33  2  0
 32 34  2  0
 14 19  1  0
 16 20  1  0
 22 25  1  0
 33 34  1  0
  7 35  1  0
  7 36  1  0
  8 37  1  0
  9 38  1  0
 10 39  1  0
 11 40  1  0
 13 41  1  0
 14 42  1  0
 15 43  1  0
 16 44  1  0
 17 45  1  0
 18 46  1  0
 21 47  1  0
 22 48  1  0
 25 49  1  0
 26 50  1  0
 26 51  1  0
 26 52  1  0
 27 53  1  0
 27 54  1  0
 27 55  1  0
 28 56  1  0
 28 57  1  0
 28 58  1  0
 30 59  1  0
 31 60  1  0
 32 61  1  0
 33 62  1  0
 34 63  1  0
M  END
> <Name>
CHEMBL4087413

> <IC50 nM>
30000

> <Molecule_ChEMBL_ID>
CHEMBL4087413

> <Smiles>
CC(C)(C)c1ccc(S(=O)(=O)N(Cc2ccccc2)c2ccc(Oc3ccccc3)cc2)cc1

$$$$
CHEMBL211441
  SciTegic08162514323D

 68 71  0  0  1  0            999 V2000
    2.5570    0.8980   -1.9980 F   0  0
    2.3790    0.5610   -0.6820 C   0  0
    3.2740   -0.4200   -0.3360 F   0  0
    2.5860    1.6660    0.1060 F   0  0
    0.9550    0.0470   -0.4730 C   0  0  3  0  0  0
    1.0120   -1.3480   -0.2730 O   0  0
    0.0590    0.3520   -1.6420 C   0  0
    0.2720    0.6760    0.7420 C   0  0
    0.3240    1.2420   -2.4160 O   0  0
   -1.0680   -0.4020   -1.8180 N   0  0
    0.3830   -0.1950    2.0000 C   0  0  3  0  0  0
   -1.8850   -0.1540   -2.8530 C   0  0
    1.4470   -1.2250    1.7640 C   0  0
    0.7580    0.7070    3.1860 C   0  0
   -1.0000   -0.8160    2.2990 C   0  0
   -1.5840    0.8870   -3.7690 C   0  0
   -3.0590   -0.9340   -3.0410 C   0  0
    1.1350   -2.6070    1.5590 C   0  0
    2.8110   -0.8180    1.7270 C   0  0
    0.9940   -0.0800    4.4770 C   0  0
    1.9060    1.6640    2.8600 C   0  0
   -1.3070   -1.9960    1.3730 C   0  0
   -2.4530    1.1450   -4.8610 C   0  0
   -3.9260   -0.6780   -4.1310 C   0  0
    2.1800   -3.5390    1.3300 C   0  0
   -0.2660   -3.1020    1.5820 C   0  0
    3.8420   -1.7560    1.4960 C   0  0
   -0.1840    0.0120    5.4460 C   0  0
    1.7150    3.0470    3.4810 C   0  0
   -3.6150    0.3630   -5.0350 C   0  0
   -2.1740    2.2300   -5.8460 C   0  0
    3.5250   -3.1170    1.2970 C   0  0
   -4.4840    0.6840   -6.2010 C   0  0
   -2.9840    2.4410   -6.8280 N   0  0
   -0.9510    3.1040   -5.7210 C   0  0
   -5.5000    0.0660   -6.4320 O   0  0
   -4.2050    1.6780   -7.0760 O   0  0
    0.0980   -1.6700   -0.2480 H   0  0
    0.6640    1.6760    0.9320 H   0  0
   -0.7700    0.9040    0.5240 H   0  0
   -1.2830   -1.1390   -1.1780 H   0  0
    0.0020    1.4790    3.3380 H   0  0
   -1.7810   -0.0630    2.2110 H   0  0
   -1.0390   -1.1680    3.3320 H   0  0
   -0.6930    1.4840   -3.6390 H   0  0
   -3.3070   -1.7310   -2.3530 H   0  0
    3.0720    0.2190    1.8750 H   0  0
    1.9160    0.2400    4.9590 H   0  0
    1.2320   -1.1190    4.2540 H   0  0
    2.8610    1.2340    3.1600 H   0  0
    2.0490    1.7400    1.7830 H   0  0
   -2.3070   -2.3810    1.5720 H   0  0
   -1.3030   -1.6640    0.3340 H   0  0
   -4.8140   -1.2770   -4.2620 H   0  0
    1.9490   -4.5840    1.1800 H   0  0
   -0.4390   -3.5820    2.5450 H   0  0
   -0.4080   -3.8710    0.8200 H   0  0
    4.8710   -1.4320    1.4690 H   0  0
    0.0860   -0.3280    6.4460 H   0  0
   -1.0160   -0.6040    5.1000 H   0  0
   -0.5390    1.0390    5.5280 H   0  0
    2.5450    3.7050    3.2190 H   0  0
    0.7830    3.4980    3.1410 H   0  0
    1.6740    2.9800    4.5690 H   0  0
    4.3130   -3.8340    1.1190 H   0  0
   -0.8770    3.8630   -6.4980 H   0  0
   -0.0510    2.4900   -5.7680 H   0  0
   -0.9570    3.6130   -4.7560 H   0  0
  1  2  1  0
  2  3  1  0
  2  4  1  0
  2  5  1  0
  5  6  1  0
  5  7  1  0
  5  8  1  0
  7  9  2  0
  7 10  1  0
  8 11  1  0
 10 12  1  0
 11 13  1  0
 11 14  1  0
 11 15  1  0
 12 16  2  0
 12 17  1  0
 13 18  2  0
 13 19  1  0
 14 20  1  0
 14 21  1  0
 15 22  1  0
 16 23  1  0
 17 24  2  0
 18 25  1  0
 18 26  1  0
 19 27  2  0
 20 28  1  0
 21 29  1  0
 23 30  2  0
 23 31  1  0
 25 32  2  0
 30 33  1  0
 31 34  2  0
 31 35  1  0
 33 36  2  0
 33 37  1  0
 22 26  1  0
 24 30  1  0
 27 32  1  0
 34 37  1  0
  6 38  1  0
  8 39  1  0
  8 40  1  0
 10 41  1  0
 14 42  1  0
 15 43  1  0
 15 44  1  0
 16 45  1  0
 17 46  1  0
 19 47  1  0
 20 48  1  0
 20 49  1  0
 21 50  1  0
 21 51  1  0
 22 52  1  0
 22 53  1  0
 24 54  1  0
 25 55  1  0
 26 56  1  0
 26 57  1  0
 27 58  1  0
 28 59  1  0
 28 60  1  0
 28 61  1  0
 29 62  1  0
 29 63  1  0
 29 64  1  0
 32 65  1  0
 35 66  1  0
 35 67  1  0
 35 68  1  0
M  END
> <Name>
CHEMBL211441

> <IC50 nM>
5.25

> <Molecule_ChEMBL_ID>
CHEMBL211441

> <Smiles>
CCC(CC)C1(CC(O)(C(=O)Nc2ccc3c(=O)onc(C)c3c2)C(F)(F)F)CCCc2ccccc21

$$$$
CHEMBL5282866
  SciTegic08162514323D

 49 52  0  0  0  0            999 V2000
    2.1640   -0.4770    0.4530 S   0  0
    2.3770    0.1870   -0.8220 O   0  0
    2.2640    0.4200    1.5900 O   0  0
    0.6600   -1.0820    0.4390 N   0  0
    3.3580   -1.7110    0.6290 C   0  0
   -0.3910   -0.2620    0.3110 C   0  0
    4.7190   -1.3690    0.6600 C   0  0
    2.9650   -3.0550    0.7400 C   0  0
   -1.7070   -0.7790    0.2990 C   0  0
   -0.1990    1.1330    0.1840 C   0  0
    5.6900   -2.3750    0.8050 C   0  0
    3.9380   -4.0590    0.8850 C   0  0
   -2.8280    0.0780    0.1600 C   0  0
   -1.3090    1.9980    0.0470 C   0  0
    5.3030   -3.7230    0.9160 C   0  0
   -2.6410    1.4920    0.0330 C   0  0
   -4.1870   -0.5240    0.1540 C   0  0
    6.2130   -4.6640    1.0510 O   0  0
   -3.7190    2.3320   -0.1000 N   0  0
   -5.1990    0.3630   -0.5780 C   0  0
    5.7700   -6.0040    1.2190 C   0  0
   -3.5740    3.6890   -0.2620 C   0  0
   -5.1150    1.8090   -0.0680 C   0  0
   -4.2970    4.4550    0.3280 O   0  0
   -2.5390    4.1990   -1.1500 C   0  0
   -2.1190    3.3950   -2.1680 O   0  0
   -1.8910    5.4360   -1.1170 C   0  0
   -1.1720    4.1500   -2.7970 C   0  0
   -0.9980    5.4000   -2.1890 C   0  0
    0.5180   -2.0680    0.5290 H   0  0
    5.0220   -0.3360    0.5740 H   0  0
    1.9160   -3.3180    0.7170 H   0  0
   -1.8730   -1.8460    0.3950 H   0  0
    0.7950    1.5570    0.1890 H   0  0
    6.7370   -2.1090    0.8280 H   0  0
    3.6330   -5.0920    0.9710 H   0  0
   -1.1030    3.0570   -0.0450 H   0  0
   -4.1720   -1.5120   -0.3090 H   0  0
   -4.5040   -0.6640    1.1900 H   0  0
   -5.0020    0.3420   -1.6520 H   0  0
   -6.2090   -0.0250   -0.4430 H   0  0
    6.6450   -6.6510    1.2660 H   0  0
    5.1000   -6.0350    2.0780 H   0  0
    5.1940   -6.2850    0.3360 H   0  0
   -5.7710    2.4430   -0.6660 H   0  0
   -5.4790    1.8590    0.9610 H   0  0
   -2.0430    6.2420   -0.4140 H   0  0
   -0.6230    3.8090   -3.6640 H   0  0
   -0.3140    6.1820   -2.4920 H   0  0
  1  2  2  0
  1  3  2  0
  1  4  1  0
  1  5  1  0
  4  6  1  0
  5  7  2  0
  5  8  1  0
  6  9  2  0
  6 10  1  0
  7 11  1  0
  8 12  2  0
  9 13  1  0
 10 14  2  0
 11 15  2  0
 13 16  2  0
 13 17  1  0
 15 18  1  0
 16 19  1  0
 17 20  1  0
 18 21  1  0
 19 22  1  0
 19 23  1  0
 22 24  2  0
 22 25  1  0
 25 26  1  0
 25 27  2  0
 26 28  1  0
 27 29  1  0
 12 15  1  0
 14 16  1  0
 20 23  1  0
 28 29  2  0
  4 30  1  0
  7 31  1  0
  8 32  1  0
  9 33  1  0
 10 34  1  0
 11 35  1  0
 12 36  1  0
 14 37  1  0
 17 38  1  0
 17 39  1  0
 20 40  1  0
 20 41  1  0
 21 42  1  0
 21 43  1  0
 21 44  1  0
 23 45  1  0
 23 46  1  0
 27 47  1  0
 28 48  1  0
 29 49  1  0
M  END
> <Name>
CHEMBL5282866

> <IC50 nM>
50000

> <Molecule_ChEMBL_ID>
CHEMBL5282866

> <Smiles>
COc1ccc(S(=O)(=O)Nc2ccc3c(c2)CCCN3C(=O)c2ccco2)cc1

$$$$
CHEMBL5280766
  SciTegic08162514323D

 59 63  0  0  0  0            999 V2000
    2.6640   -1.5390    2.1250 S   0  0
    2.7170   -0.5430    3.1820 O   0  0
    3.5800   -2.6480    2.3380 O   0  0
    1.1620   -2.1460    2.1020 N   0  0
    3.0740   -0.7770    0.6450 C   0  0
    0.1090   -1.3260    1.9710 C   0  0
    3.0570   -1.4840   -0.5900 C   0  0
    3.4380    0.5880    0.6680 C   0  0
   -1.2070   -1.8440    1.9590 C   0  0
    0.3010    0.0680    1.8460 C   0  0
    3.4080   -0.8160   -1.8110 C   0  0
    2.6880   -2.8530   -0.6130 C   0  0
    3.7830    1.2540   -0.5270 C   0  0
   -2.3280   -0.9860    1.8200 C   0  0
   -0.8090    0.9360    1.7090 C   0  0
    3.3910   -1.5410   -3.0470 C   0  0
    3.7720    0.5610   -1.7580 C   0  0
    2.6720   -3.5610   -1.8340 C   0  0
   -2.1410    0.4280    1.6950 C   0  0
   -3.6860   -1.5880    1.8140 C   0  0
    3.7110   -0.9840   -4.2310 N   0  0
    3.0200   -2.9100   -3.0370 C   0  0
   -3.2210    1.2680    1.5620 N   0  0
   -4.7010   -0.7010    1.0880 C   0  0
    4.7130   -1.6230   -5.0980 C   0  0
    3.0740    0.2620   -4.6780 C   0  0
   -3.0720    2.6250    1.4060 C   0  0
   -4.6150    0.7460    1.5920 C   0  0
   -2.0630    3.0820    0.9220 O   0  0
   -4.1410    3.5140    1.8380 C   0  0
   -4.9320    3.1080    2.8690 O   0  0
   -4.4920    4.7680    1.3320 C   0  0
   -5.8130    4.1410    3.0200 C   0  0
   -5.5800    5.1760    2.1040 C   0  0
    1.0200   -3.1330    2.1840 H   0  0
    3.4510    1.1270    1.6040 H   0  0
   -1.3710   -2.9100    2.0570 H   0  0
    1.2950    0.4920    1.8500 H   0  0
    2.4160   -3.3830    0.2890 H   0  0
    4.0590    2.2990   -0.5000 H   0  0
   -0.6040    1.9920    1.6170 H   0  0
    4.0430    1.1090   -2.6490 H   0  0
    2.3910   -4.6040   -1.8480 H   0  0
   -3.6700   -2.5740    1.3460 H   0  0
   -4.0000   -1.7360    2.8500 H   0  0
    2.9980   -3.4840   -3.9530 H   0  0
   -4.5120   -0.7270    0.0120 H   0  0
   -5.7110   -1.0900    1.2290 H   0  0
    5.0960   -0.9880   -5.8970 H   0  0
    4.2770   -2.5100   -5.5550 H   0  0
    5.5610   -1.9410   -4.4900 H   0  0
    2.2700    0.5220   -3.9880 H   0  0
    3.8320    1.0390   -4.7740 H   0  0
    2.6310    0.1060   -5.6620 H   0  0
   -5.2640    1.3790    0.9820 H   0  0
   -4.9880    0.8050    2.6150 H   0  0
   -4.0240    5.3090    0.5200 H   0  0
   -6.5940    4.1490    3.7680 H   0  0
   -6.1330    6.1020    2.0140 H   0  0
  1  2  2  0
  1  3  2  0
  1  4  1  0
  1  5  1  0
  4  6  1  0
  5  7  2  0
  5  8  1  0
  6  9  2  0
  6 10  1  0
  7 11  1  0
  7 12  1  0
  8 13  2  0
  9 14  1  0
 10 15  2  0
 11 16  1  0
 11 17  2  0
 12 18  2  0
 14 19  2  0
 14 20  1  0
 16 21  1  0
 16 22  2  0
 19 23  1  0
 20 24  1  0
 21 25  1  0
 21 26  1  0
 23 27  1  0
 23 28  1  0
 27 29  2  0
 27 30  1  0
 30 31  1  0
 30 32  2  0
 31 33  1  0
 32 34  1  0
 13 17  1  0
 15 19  1  0
 18 22  1  0
 24 28  1  0
 33 34  2  0
  4 35  1  0
  8 36  1  0
  9 37  1  0
 10 38  1  0
 12 39  1  0
 13 40  1  0
 15 41  1  0
 17 42  1  0
 18 43  1  0
 20 44  1  0
 20 45  1  0
 22 46  1  0
 24 47  1  0
 24 48  1  0
 25 49  1  0
 25 50  1  0
 25 51  1  0
 26 52  1  0
 26 53  1  0
 26 54  1  0
 28 55  1  0
 28 56  1  0
 32 57  1  0
 33 58  1  0
 34 59  1  0
M  END
> <Name>
CHEMBL5280766

> <IC50 nM>
1670

> <Molecule_ChEMBL_ID>
CHEMBL5280766

> <Smiles>
CN(C)c1cccc2c(S(=O)(=O)Nc3ccc4c(c3)CCCN4C(=O)c3ccco3)cccc12

$$$$
CHEMBL5280308
  SciTegic08162514323D

 55 58  0  0  0  0            999 V2000
    6.8090   -3.0740   -1.8240 Cl  0  0
    5.5720   -2.7720   -0.6660 C   0  0
    5.5860   -3.3930    0.6020 C   0  0
    4.5310   -1.8830   -0.9960 C   0  0
    4.5610   -3.1190    1.5260 C   0  0
    6.6680   -4.3400    0.9880 C   0  0
    3.5100   -1.6170   -0.0680 C   0  0
    3.5220   -2.2340    1.1950 C   0  0
    2.2380   -0.5290   -0.4860 S   0  0
    2.5640   -1.9840    2.0670 O   0  0
    2.6040    0.1500   -1.7170 O   0  0
    2.0270    0.3790    0.6290 O   0  0
    0.8400   -1.3030   -0.7560 N   0  0
    2.6290   -2.6290    3.3300 C   0  0
   -0.2970   -0.6040   -0.8920 C   0  0
   -1.5450   -1.2680   -0.9430 C   0  0
   -0.2640    0.8050   -0.9900 C   0  0
   -2.7540   -0.5390   -1.0880 C   0  0
   -1.4610    1.5430   -1.1350 C   0  0
   -2.7270    0.8890   -1.1850 C   0  0
   -4.0350   -1.2910   -1.1390 C   0  0
   -3.8930    1.6030   -1.3240 N   0  0
   -5.2170   -0.4300   -0.6780 C   0  0
   -3.9020    2.9770   -1.4000 C   0  0
   -5.2170    0.9220   -1.4040 C   0  0
   -4.5940    3.5370   -2.2170 O   0  0
   -3.0430    3.7540   -0.4570 C   0  0
   -2.7500    3.2360    0.8180 C   0  0
   -2.5270    5.0040   -0.8420 C   0  0
   -1.9410    3.9690    1.7050 C   0  0
   -1.7190    5.7340    0.0450 C   0  0
   -1.4260    5.2190    1.3180 C   0  0
    4.5040   -1.4000   -1.9630 H   0  0
    4.5680   -3.5920    2.4960 H   0  0
    6.5650   -4.7540    1.9900 H   0  0
    7.6310   -3.8340    0.9360 H   0  0
    6.6920   -5.1740    0.2850 H   0  0
    0.8240   -2.3010   -0.8180 H   0  0
    2.5450   -3.7030    3.1700 H   0  0
    3.5290   -2.2870    3.8440 H   0  0
    1.7700   -2.3130    3.9200 H   0  0
   -1.5880   -2.3460   -0.8690 H   0  0
    0.6760    1.3400   -0.9570 H   0  0
   -1.3750    2.6170   -1.2050 H   0  0
   -4.1990   -1.6210   -2.1640 H   0  0
   -3.9820   -2.1900   -0.5210 H   0  0
   -5.1580   -0.2680    0.4010 H   0  0
   -6.1560   -0.9530   -0.8590 H   0  0
   -5.4670    0.7770   -2.4570 H   0  0
   -5.9960    1.5590   -0.9800 H   0  0
   -3.1410    2.2770    1.1230 H   0  0
   -2.7460    5.4100   -1.8200 H   0  0
   -1.7170    3.5700    2.6840 H   0  0
   -1.3220    6.6950   -0.2520 H   0  0
   -0.8050    5.7790    2.0000 H   0  0
  1  2  1  0
  2  3  2  0
  2  4  1  0
  3  5  1  0
  3  6  1  0
  4  7  2  0
  5  8  2  0
  7  9  1  0
  8 10  1  0
  9 11  2  0
  9 12  2  0
  9 13  1  0
 10 14  1  0
 13 15  1  0
 15 16  2  0
 15 17  1  0
 16 18  1  0
 17 19  2  0
 18 20  2  0
 18 21  1  0
 20 22  1  0
 21 23  1  0
 22 24  1  0
 22 25  1  0
 24 26  2  0
 24 27  1  0
 27 28  2  0
 27 29  1  0
 28 30  1  0
 29 31  2  0
 30 32  2  0
  7  8  1  0
 19 20  1  0
 23 25  1  0
 31 32  1  0
  4 33  1  0
  5 34  1  0
  6 35  1  0
  6 36  1  0
  6 37  1  0
 13 38  1  0
 14 39  1  0
 14 40  1  0
 14 41  1  0
 16 42  1  0
 17 43  1  0
 19 44  1  0
 21 45  1  0
 21 46  1  0
 23 47  1  0
 23 48  1  0
 25 49  1  0
 25 50  1  0
 28 51  1  0
 29 52  1  0
 30 53  1  0
 31 54  1  0
 32 55  1  0
M  END
> <Name>
CHEMBL5280308

> <IC50 nM>
18990

> <Molecule_ChEMBL_ID>
CHEMBL5280308

> <Smiles>
COc1cc(C)c(Cl)cc1S(=O)(=O)Nc1ccc2c(c1)CCCN2C(=O)c1ccccc1

$$$$
CHEMBL2087291
  SciTegic08162514323D

 57 60  0  0  0  0            999 V2000
    3.6250    1.1050   -2.3090 Br  0  0
    2.2500    1.5700   -1.0900 C   0  0
    0.8910    1.1850   -1.2660 C   0  0
    2.6190    2.3360    0.0330 C   0  0
    0.5160    0.4370   -2.3610 N   0  0
   -0.0760    1.5800   -0.3010 C   0  0
    1.6600    2.7210    0.9790 C   0  0
   -0.0820    1.0720   -3.5450 C   0  0
    0.7130   -1.0200   -2.3570 C   0  0
   -1.9120    1.1270   -0.4280 Br  0  0
    0.3200    2.3460    0.8130 C   0  0
    2.0640    3.5290    2.1600 C   0  0
   -0.2440    2.5370   -3.3550 C   0  0
    0.4000   -1.6090   -1.0290 C   0  0
    1.9220    2.7620    3.4470 C   0  0
   -1.5220    3.0800   -3.1230 C   0  0
    0.8790    3.3830   -3.4080 C   0  0
    1.3710   -1.6060   -0.0120 C   0  0
   -0.8650   -2.1740   -0.7890 C   0  0
    2.1310    1.5720    3.4880 O   0  0
    1.5590    3.4860    4.5000 O   0  0
   -1.6760    4.4670   -2.9450 C   0  0
    0.7250    4.7700   -3.2290 C   0  0
    1.0740   -2.1640    1.2440 C   0  0
   -1.1580   -2.7310    0.4670 C   0  0
   -2.8850    4.9790   -2.7290 F   0  0
   -0.5530    5.3110   -2.9980 C   0  0
    1.7870    5.5680   -3.2750 F   0  0
   -0.1910   -2.7290    1.4860 C   0  0
   -0.4670   -3.2520    2.6640 O   0  0
   -1.2460   -4.3170    2.7010 C   0  0
   -2.2210   -4.4690    3.7090 C   0  0
   -1.0980   -5.3130    1.7210 C   0  0
   -2.4240   -3.2700    4.9240 Cl  0  0
   -3.0430   -5.6110    3.7250 C   0  0
   -1.9160   -6.4530    1.7380 C   0  0
   -2.8910   -6.6060    2.7400 C   0  0
   -3.8930   -7.9960    2.7600 Cl  0  0
    3.6470    2.6350    0.1800 H   0  0
   -1.0550    0.6210   -3.7400 H   0  0
    0.5530    0.8870   -4.4100 H   0  0
    1.7460   -1.2420   -2.6190 H   0  0
    0.0700   -1.4710   -3.1150 H   0  0
   -0.4040    2.6540    1.5530 H   0  0
    3.0960    3.8610    2.0370 H   0  0
    1.4630    4.4370    2.2010 H   0  0
   -2.3850    2.4320   -3.0800 H   0  0
    1.8590    2.9690   -3.5860 H   0  0
    2.3460   -1.1740   -0.1890 H   0  0
   -1.6150   -2.1800   -1.5660 H   0  0
    1.4490    3.0550    5.3580 H   0  0
    1.8220   -2.1600    2.0220 H   0  0
   -2.1330   -3.1620    0.6470 H   0  0
   -0.6720    6.3750   -2.8590 H   0  0
   -0.3520   -5.2030    0.9470 H   0  0
   -3.7910   -5.7290    4.4960 H   0  0
   -1.7870   -7.2090    0.9750 H   0  0
  1  2  1  0
  2  3  2  0
  2  4  1  0
  3  5  1  0
  3  6  1  0
  4  7  2  0
  5  8  1  0
  5  9  1  0
  6 10  1  0
  6 11  2  0
  7 12  1  0
  8 13  1  0
  9 14  1  0
 12 15  1  0
 13 16  2  0
 13 17  1  0
 14 18  2  0
 14 19  1  0
 15 20  2  0
 15 21  1  0
 16 22  1  0
 17 23  2  0
 18 24  1  0
 19 25  2  0
 22 26  1  0
 22 27  2  0
 23 28  1  0
 24 29  2  0
 29 30  1  0
 30 31  1  0
 31 32  2  0
 31 33  1  0
 32 34  1  0
 32 35  1  0
 33 36  2  0
 35 37  2  0
 37 38  1  0
  7 11  1  0
 23 27  1  0
 25 29  1  0
 36 37  1  0
  4 39  1  0
  8 40  1  0
  8 41  1  0
  9 42  1  0
  9 43  1  0
 11 44  1  0
 12 45  1  0
 12 46  1  0
 16 47  1  0
 17 48  1  0
 18 49  1  0
 19 50  1  0
 21 51  1  0
 24 52  1  0
 25 53  1  0
 27 54  1  0
 33 55  1  0
 35 56  1  0
 36 57  1  0
M  END
> <Name>
CHEMBL2087291

> <IC50 nM>
96

> <Molecule_ChEMBL_ID>
CHEMBL2087291

> <Smiles>
O=C(O)Cc1cc(Br)c(N(Cc2ccc(Oc3ccc(Cl)cc3Cl)cc2)Cc2cc(F)cc(F)c2)c(Br)c1

$$$$
CHEMBL3605926
  SciTegic08162514323D

 71 74  0  0  0  0            999 V2000
   -3.3590    4.8010   -0.4940 S   0  0
   -2.9400    6.1800   -0.6720 O   0  0
   -4.2420    4.3300   -1.5470 O   0  0
   -2.0270    3.8790   -0.5290 N   0  0
   -4.2010    4.6490    1.0760 C   0  0
   -2.1330    2.5410   -0.4450 C   0  0
   -0.8910    1.8480   -0.3980 C   0  0
   -3.3500    1.8150   -0.4060 C   0  0
    0.4360    2.2600   -0.4160 N   0  0
   -0.8610    0.4770   -0.3130 C   0  0
   -3.3090    0.3980   -0.3200 C   0  0
    1.2320    1.0940   -0.3420 C   0  0
    0.3960   -0.0430   -0.2750 C   0  0
   -2.0630   -0.2810   -0.2730 C   0  0
   -4.5650   -0.3690   -0.2770 C   0  0
    2.7460    1.1430   -0.3380 C   0  0
    0.8180   -1.4630   -0.1860 C   0  0
   -4.6490   -0.5310   -1.7970 C   0  0
   -5.7130    0.4610    0.2930 C   0  0
   -4.3830   -1.7030    0.4470 C   0  0
    3.2950    0.6020    0.8930 N   0  0
    0.3870   -2.2750    0.8850 C   0  0
    1.6540   -2.0000   -1.1820 C   0  0
    4.7460    0.5610    0.8280 C   0  0
    2.8590    1.3850    2.0350 C   0  0
   -0.3980   -1.7950    1.8300 O   0  0
    0.7990   -3.6190    0.9490 C   0  0
    2.0630   -3.3440   -1.1110 C   0  0
    5.2230   -0.4140   -0.1880 C   0  0
   -0.9610   -2.7090    2.7580 C   0  0
    1.6350   -4.1520   -0.0470 C   0  0
    5.0430   -1.7930    0.0190 C   0  0
    5.8560    0.0430   -1.3590 C   0  0
    2.0210   -5.4240    0.0190 F   0  0
    5.4920   -2.7130   -0.9410 C   0  0
    6.3050   -0.8790   -2.3200 C   0  0
    6.1230   -2.2580   -2.1110 C   0  0
   -1.1270    4.3050   -0.6110 H   0  0
   -5.1230    5.2270    1.1480 H   0  0
   -3.5390    4.9790    1.8770 H   0  0
   -4.4470    3.6040    1.2580 H   0  0
   -4.2990    2.3300   -0.4410 H   0  0
    0.7700    3.1930   -0.4710 H   0  0
   -2.0410   -1.3590   -0.2070 H   0  0
    3.0760    2.1760   -0.4590 H   0  0
    3.1290    0.5780   -1.1880 H   0  0
   -5.5310   -1.0960   -2.0960 H   0  0
   -3.7720   -1.0550   -2.1780 H   0  0
   -4.6930    0.4430   -2.2850 H   0  0
   -5.4340    0.9570    1.2210 H   0  0
   -6.5780   -0.1700    0.5000 H   0  0
   -6.0240    1.2290   -0.4160 H   0  0
   -3.8670   -1.5820    1.4000 H   0  0
   -3.8010   -2.3960   -0.1600 H   0  0
   -5.3500   -2.1680    0.6480 H   0  0
    1.9920   -1.3910   -2.0080 H   0  0
    5.1470    0.2910    1.8050 H   0  0
    5.1270    1.5550    0.5860 H   0  0
    1.7770    1.4380    2.1540 H   0  0
    3.2320    2.4040    1.9410 H   0  0
    3.2750    0.9610    2.9490 H   0  0
    0.4710   -4.2400    1.7680 H   0  0
    2.7050   -3.7480   -1.8790 H   0  0
   -0.1520   -3.1410    3.3460 H   0  0
   -1.7400   -2.1910    3.3180 H   0  0
   -1.4340   -3.5160    2.1970 H   0  0
    4.5590   -2.1500    0.9160 H   0  0
    5.9960    1.1020   -1.5250 H   0  0
    5.3540   -3.7730   -0.7810 H   0  0
    6.7890   -0.5270   -3.2190 H   0  0
    6.4690   -2.9650   -2.8500 H   0  0
  1  2  2  0
  1  3  2  0
  1  4  1  0
  1  5  1  0
  4  6  1  0
  6  7  2  0
  6  8  1  0
  7  9  1  0
  7 10  1  0
  8 11  2  0
  9 12  1  0
 10 13  1  0
 10 14  2  0
 11 15  1  0
 12 16  1  0
 13 17  1  0
 15 18  1  0
 15 19  1  0
 15 20  1  0
 16 21  1  0
 17 22  2  0
 17 23  1  0
 21 24  1  0
 21 25  1  0
 22 26  1  0
 22 27  1  0
 23 28  2  0
 24 29  1  0
 26 30  1  0
 27 31  2  0
 29 32  2  0
 29 33  1  0
 31 34  1  0
 32 35  1  0
 33 36  2  0
 35 37  2  0
 11 14  1  0
 12 13  2  0
 28 31  1  0
 36 37  1  0
  4 38  1  0
  5 39  1  0
  5 40  1  0
  5 41  1  0
  8 42  1  0
  9 43  1  0
 14 44  1  0
 16 45  1  0
 16 46  1  0
 18 47  1  0
 18 48  1  0
 18 49  1  0
 19 50  1  0
 19 51  1  0
 19 52  1  0
 20 53  1  0
 20 54  1  0
 20 55  1  0
 23 56  1  0
 24 57  1  0
 24 58  1  0
 25 59  1  0
 25 60  1  0
 25 61  1  0
 27 62  1  0
 28 63  1  0
 30 64  1  0
 30 65  1  0
 30 66  1  0
 32 67  1  0
 33 68  1  0
 35 69  1  0
 36 70  1  0
 37 71  1  0
M  END
> <Name>
CHEMBL3605926

> <IC50 nM>
4.49

> <Molecule_ChEMBL_ID>
CHEMBL3605926

> <Smiles>
COc1cc(F)ccc1-c1c(CN(C)Cc2ccccc2)[nH]c2c(NS(C)(=O)=O)cc(C(C)(C)C)cc12

$$$$
CHEMBL3605927
  SciTegic08162514323D

 60 63  0  0  0  0            999 V2000
   -0.8140    3.7950   -1.9260 S   0  0
    0.3440    4.4830   -1.3790 O   0  0
   -0.4630    2.7310   -2.8500 O   0  0
   -1.6090    3.1190   -0.6850 N   0  0
   -1.8440    4.9830   -2.7770 C   0  0
   -1.7150    1.7830   -0.6030 C   0  0
   -0.4730    1.0900   -0.5550 C   0  0
   -2.9320    1.0570   -0.5640 C   0  0
    0.8530    1.5020   -0.5740 N   0  0
   -0.4430   -0.2830   -0.4710 C   0  0
   -2.8930   -0.3610   -0.4770 C   0  0
    1.6500    0.3360   -0.4980 C   0  0
    0.8140   -0.8010   -0.4320 C   0  0
   -1.6450   -1.0390   -0.4300 C   0  0
   -4.1470   -1.1290   -0.4350 C   0  0
    3.1640    0.3850   -0.4940 C   0  0
    1.2340   -2.2210   -0.3440 C   0  0
   -4.8850   -0.9280    0.8890 C   0  0
   -5.0250   -0.8380   -1.6500 C   0  0
    3.6310    1.1430    0.6950 C   0  0
    0.7990   -3.0350    0.7250 C   0  0
    2.0780   -2.7580   -1.3360 C   0  0
    3.8790    2.5240    0.5980 C   0  0
    3.8280    0.4810    1.9200 C   0  0
    0.0100   -2.5560    1.6660 O   0  0
    1.2110   -4.3790    0.7870 C   0  0
    2.4860   -4.0990   -1.2660 C   0  0
    4.3220    3.2400    1.7230 C   0  0
    4.2700    1.1970    3.0450 C   0  0
   -0.4220   -3.4410    2.6900 C   0  0
    2.0530   -4.9100   -0.2030 C   0  0
    4.5180    2.5780    2.9450 C   0  0
    2.4390   -6.1830   -0.1370 F   0  0
   -2.0220    3.6990    0.0180 H   0  0
   -1.3590    5.4710   -3.6230 H   0  0
   -2.1560    5.7600   -2.0780 H   0  0
   -2.7400    4.4870   -3.1460 H   0  0
   -3.8830    1.5710   -0.6000 H   0  0
    1.1870    2.4360   -0.6290 H   0  0
   -1.6230   -2.1170   -0.3650 H   0  0
   -3.7270   -2.1330   -0.4940 H   0  0
    3.5140    0.8790   -1.4000 H   0  0
    3.5610   -0.6290   -0.4570 H   0  0
   -5.2310    0.0980    1.0100 H   0  0
   -4.2340   -1.1620    1.7330 H   0  0
   -5.7540   -1.5840    0.9470 H   0  0
   -4.4790   -0.9590   -2.5860 H   0  0
   -5.4040    0.1840   -1.6170 H   0  0
   -5.8830   -1.5100   -1.6780 H   0  0
    2.4200   -2.1460   -2.1580 H   0  0
    3.7300    3.0390   -0.3420 H   0  0
    3.6390   -0.5800    2.0020 H   0  0
    0.8790   -5.0020    1.6060 H   0  0
    3.1330   -4.5040   -2.0310 H   0  0
    4.5120    4.3010    1.6470 H   0  0
    4.4200    0.6880    3.9850 H   0  0
   -1.0080   -4.2360    2.2290 H   0  0
    0.4530   -3.7580    3.2580 H   0  0
   -1.0760   -2.8900    3.3630 H   0  0
    4.8570    3.1290    3.8110 H   0  0
  1  2  2  0
  1  3  2  0
  1  4  1  0
  1  5  1  0
  4  6  1  0
  6  7  2  0
  6  8  1  0
  7  9  1  0
  7 10  1  0
  8 11  2  0
  9 12  1  0
 10 13  1  0
 10 14  2  0
 11 15  1  0
 12 16  1  0
 13 17  1  0
 15 18  1  0
 15 19  1  0
 16 20  1  0
 17 21  2  0
 17 22  1  0
 20 23  2  0
 20 24  1  0
 21 25  1  0
 21 26  1  0
 22 27  2  0
 23 28  1  0
 24 29  2  0
 25 30  1  0
 26 31  2  0
 28 32  2  0
 31 33  1  0
 11 14  1  0
 12 13  2  0
 27 31  1  0
 29 32  1  0
  4 34  1  0
  5 35  1  0
  5 36  1  0
  5 37  1  0
  8 38  1  0
  9 39  1  0
 14 40  1  0
 15 41  1  0
 16 42  1  0
 16 43  1  0
 18 44  1  0
 18 45  1  0
 18 46  1  0
 19 47  1  0
 19 48  1  0
 19 49  1  0
 22 50  1  0
 23 51  1  0
 24 52  1  0
 26 53  1  0
 27 54  1  0
 28 55  1  0
 29 56  1  0
 30 57  1  0
 30 58  1  0
 30 59  1  0
 32 60  1  0
M  END
> <Name>
CHEMBL3605927

> <IC50 nM>
7.54

> <Molecule_ChEMBL_ID>
CHEMBL3605927

> <Smiles>
COc1cc(F)ccc1-c1c(Cc2ccccc2)[nH]c2c(NS(C)(=O)=O)cc(C(C)C)cc12

$$$$
CHEMBL197100
  SciTegic08162514323D

 64 67  0  0  1  0            999 V2000
    2.8390   -4.6700   -3.0350 F   0  0
    3.0390   -3.3620   -2.8910 C   0  0
    2.0350   -2.5530   -2.3300 C   0  0
    4.2550   -2.7880   -3.3000 C   0  0
    2.2470   -1.1710   -2.1780 C   0  0
    4.4660   -1.4070   -3.1470 C   0  0
    3.4650   -0.5940   -2.5870 C   0  0
    1.1770   -0.3250   -1.5830 C   0  0
    3.6740    0.7000   -2.4490 O   0  0
    1.6200   -0.5810   -0.1420 C   0  0
   -0.2140   -0.8850   -1.8810 C   0  0
    1.3250    1.1400   -1.9940 C   0  0
    5.0170    1.1530   -2.3630 C   0  0
    0.9280    0.3420    0.8610 C   0  0  1  0  0  0
    1.6550    1.5490    0.9240 O   0  0
   -0.5120    0.6710    0.4640 C   0  0
    1.0220   -0.3440    2.2240 C   0  0
   -1.1520    1.5310    1.4700 N   0  0
    0.3260   -1.6580    2.2240 C   0  0
   -2.3970    1.9850    1.2690 C   0  0
   -1.0800   -1.7100    2.2240 C   0  0
    1.0720   -2.8500    2.2240 C   0  0
   -3.0020    2.8660    2.2050 C   0  0
   -3.1300    1.5930    0.1180 C   0  0
   -1.7380   -2.9520    2.2240 C   0  0
    0.4130   -4.0920    2.2240 C   0  0
   -4.3190    3.3490    1.9990 C   0  0
   -4.4430    2.0780   -0.0860 C   0  0
   -0.9910   -4.1430    2.2240 C   0  0
   -5.0100    2.9540    0.8710 C   0  0
   -5.2410    4.2700    2.7710 C   0  0
   -6.3270    3.5590    0.8540 C   0  0
   -6.4580    4.3250    1.9650 O   0  0
   -7.1450    3.3870   -0.0190 O   0  0
    1.1000   -2.9960   -2.0160 H   0  0
    5.0300   -3.4050   -3.7310 H   0  0
    5.4020   -0.9700   -3.4630 H   0  0
    2.7030   -0.5050   -0.0520 H   0  0
    1.4670   -1.6260    0.1280 H   0  0
   -0.3290   -1.1480   -2.9330 H   0  0
   -0.9840   -0.1540   -1.6350 H   0  0
   -0.4040   -1.7810   -1.2910 H   0  0
    1.4790    1.2470   -3.0670 H   0  0
    2.1750    1.5980   -1.4880 H   0  0
    0.4330    1.7070   -1.7260 H   0  0
    5.0070    2.1910   -2.0310 H   0  0
    5.5740    0.4530   -1.7390 H   0  0
    5.4510    1.1270   -3.3620 H   0  0
    1.4110    2.0710    0.1430 H   0  0
   -1.0970   -0.2410    0.3470 H   0  0
   -0.5400    1.1710   -0.5040 H   0  0
    0.6020    0.2890    3.0040 H   0  0
    2.0630   -0.4850    2.5130 H   0  0
   -0.6590    1.7760    2.3050 H   0  0
   -1.6590   -0.7980    2.2240 H   0  0
    2.1520   -2.8180    2.2240 H   0  0
   -2.4670    3.1830    3.0900 H   0  0
   -2.6980    0.9230   -0.6120 H   0  0
   -2.8170   -2.9910    2.2240 H   0  0
    0.9870   -5.0070    2.2240 H   0  0
   -5.0020    1.7830   -0.9620 H   0  0
   -1.4970   -5.0980    2.2240 H   0  0
   -4.8250    5.2630    2.8640 H   0  0
   -5.4730    3.8720    3.7490 H   0  0
  1  2  1  0
  2  3  2  0
  2  4  1  0
  3  5  1  0
  4  6  2  0
  5  7  2  0
  5  8  1  0
  7  9  1  0
  8 10  1  0
  8 11  1  0
  8 12  1  0
  9 13  1  0
 10 14  1  0
 14 15  1  0
 14 16  1  0
 14 17  1  0
 16 18  1  0
 17 19  1  0
 18 20  1  0
 19 21  2  0
 19 22  1  0
 20 23  2  0
 20 24  1  0
 21 25  1  0
 22 26  2  0
 23 27  1  0
 24 28  2  0
 25 29  2  0
 27 30  2  0
 27 31  1  0
 30 32  1  0
 31 33  1  0
 32 34  2  0
  6  7  1  0
 26 29  1  0
 28 30  1  0
 32 33  1  0
  3 35  1  0
  4 36  1  0
  6 37  1  0
 10 38  1  0
 10 39  1  0
 11 40  1  0
 11 41  1  0
 11 42  1  0
 12 43  1  0
 12 44  1  0
 12 45  1  0
 13 46  1  0
 13 47  1  0
 13 48  1  0
 15 49  1  0
 16 50  1  0
 16 51  1  0
 17 52  1  0
 17 53  1  0
 18 54  1  0
 21 55  1  0
 22 56  1  0
 23 57  1  0
 24 58  1  0
 25 59  1  0
 26 60  1  0
 28 61  1  0
 29 62  1  0
 31 63  1  0
 31 64  1  0
M  END
> <Name>
CHEMBL197100

> <IC50 nM>
81

> <Molecule_ChEMBL_ID>
CHEMBL197100

> <Smiles>
COc1ccc(F)cc1C(C)(C)CC(O)(CNc1ccc2c(c1)COC2=O)Cc1ccccc1

$$$$
CHEMBL364015
  SciTegic08162514323D

 53 57  0  0  1  0            999 V2000
    5.4900   -5.9980   -1.0270 F   0  0
    4.3950   -5.2560   -0.8950 C   0  0
    3.6890   -4.9020   -2.0080 N   0  0
    3.9820   -4.8480    0.3910 C   0  0
    2.5620   -4.1410   -1.8850 C   0  0
    2.8260   -4.0650    0.5290 C   0  0
    2.1070   -3.7050   -0.6250 C   0  0
    0.8790   -2.8750   -0.5160 C   0  0  1  0  0  0
   -0.0120   -3.4710    0.3980 O   0  0
    1.1970   -1.4570   -0.0230 C   0  0  2  0  0  0
    0.0720   -0.4410   -0.3550 C   0  0  2  0  0  0
    2.5920   -1.0120   -0.5210 C   0  0
    0.4370    0.9240    0.2520 C   0  0
   -1.3090   -0.9840    0.1470 C   0  0
   -0.0140   -0.2440   -1.8770 C   0  0
    2.7790    0.5160   -0.5760 C   0  0
   -0.5160    1.8160    0.6020 C   0  0
    1.9020    1.2600    0.4380 C   0  0
   -2.3590    0.1110    0.2730 C   0  0
   -1.9280    1.4060    0.5080 C   0  0
   -3.7400   -0.0610    0.2010 C   0  0
   -3.1040    2.0800    0.6090 N   0  0
   -4.1410    1.2210    0.4240 N   0  0
   -3.2360    3.4100    0.8560 C   0  0
   -2.4340    4.3400    0.1680 C   0  0
   -4.1800    3.8630    1.7990 C   0  0
   -2.5720    5.7150    0.4240 C   0  0
   -4.3170    5.2380    2.0530 C   0  0
   -3.5140    6.1640    1.3650 C   0  0
   -3.6450    7.4670    1.6070 F   0  0
    4.5510   -5.1350    1.2640 H   0  0
    2.0160   -3.8690   -2.7750 H   0  0
    2.4980   -3.7440    1.5080 H   0  0
    0.3850   -2.8260   -1.4880 H   0  0
   -0.2540   -4.3400    0.0390 H   0  0
    1.2560   -1.5160    1.0650 H   0  0
    3.3500   -1.4510    0.1270 H   0  0
    2.7850   -1.4140   -1.5180 H   0  0
   -1.1930   -1.4340    1.1330 H   0  0
   -1.6760   -1.7730   -0.5120 H   0  0
   -0.5880    0.6500   -2.1170 H   0  0
    0.9820   -0.1540   -2.3090 H   0  0
   -0.5060   -1.0940   -2.3500 H   0  0
    2.5250    0.8690   -1.5760 H   0  0
    3.8300    0.7680   -0.4280 H   0  0
   -0.2520    2.8070    0.9450 H   0  0
    2.2030    0.9980    1.4530 H   0  0
    2.0590    2.3340    0.3300 H   0  0
   -4.3580   -0.9320    0.0230 H   0  0
   -1.7030    4.0140   -0.5610 H   0  0
   -4.8070    3.1660    2.3380 H   0  0
   -1.9530    6.4240   -0.1050 H   0  0
   -5.0410    5.5800    2.7770 H   0  0
  1  2  1  0
  2  3  2  0
  2  4  1  0
  3  5  1  0
  4  6  2  0
  5  7  2  0
  7  8  1  0
  8  9  1  0
  8 10  1  0
 10 11  1  0
 10 12  1  0
 11 13  1  0
 11 14  1  0
 11 15  1  0
 12 16  1  0
 13 17  2  0
 13 18  1  0
 14 19  1  0
 17 20  1  0
 19 21  1  0
 20 22  1  0
 21 23  2  0
 22 24  1  0
 24 25  2  0
 24 26  1  0
 25 27  1  0
 26 28  2  0
 27 29  2  0
 29 30  1  0
  6  7  1  0
 16 18  1  0
 19 20  2  0
 22 23  1  0
 28 29  1  0
  4 31  1  0
  5 32  1  0
  6 33  1  0
  8 34  1  0
  9 35  1  0
 10 36  1  0
 12 37  1  0
 12 38  1  0
 14 39  1  0
 14 40  1  0
 15 41  1  0
 15 42  1  0
 15 43  1  0
 16 44  1  0
 16 45  1  0
 17 46  1  0
 18 47  1  0
 18 48  1  0
 21 49  1  0
 25 50  1  0
 26 51  1  0
 27 52  1  0
 28 53  1  0
M  END
> <Name>
CHEMBL364015

> <IC50 nM>
9.1

> <Molecule_ChEMBL_ID>
CHEMBL364015

> <Smiles>
C[C@]12Cc3cnn(-c4ccc(F)cc4)c3C=C1CCC[C@@H]2[C@H](O)c1ccc(F)nc1

$$$$
CHEMBL4536521
  SciTegic08162514323D

 49 53  0  0  1  0            999 V2000
   -6.5590    3.8730    1.3750 F   0  0
   -5.6290    3.1410    0.7640 C   0  0
   -4.3070    3.6110    0.6800 C   0  0
   -5.9710    1.9000    0.1990 C   0  0
   -3.3260    2.8400    0.0330 C   0  0
   -4.9900    1.1270   -0.4470 C   0  0
   -3.6660    1.5960   -0.5310 C   0  0
   -2.7170    0.8500   -1.1560 N   0  0
   -2.8890    0.2250   -2.3520 N   0  0
   -1.4610    0.6130   -0.6930 C   0  0
   -1.7890   -0.4690   -2.7560 C   0  0
   -0.9410   -0.2050   -1.6840 C   0  0
   -0.7310    1.0450    0.5120 C   0  0
    0.4710   -0.7480   -1.5000 C   0  0
    0.5940    0.7910    0.5840 C   0  0
    1.3670    0.1600   -0.5840 C   0  0  1  0  0  0
    2.4960   -0.7070   -0.0200 C   0  0
    1.9200    1.3480   -1.4180 C   0  0
    2.1890   -1.7050    1.0570 C   0  0
    3.7730   -0.6170   -0.4570 C   0  0
    3.0640    0.9300   -2.3440 C   0  0
    0.8530   -2.0310    1.3540 C   0  0
    3.2340   -2.3170    1.7700 C   0  0
    4.2210    0.3610   -1.5180 C   0  0
    0.5660   -2.9670    2.3630 C   0  0
    2.9450   -3.2520    2.7790 C   0  0
    1.6110   -3.5800    3.0780 C   0  0
    1.3420   -4.4570    4.0230 O   0  0
   -4.0410    4.5640    1.1110 H   0  0
   -6.9860    1.5350    0.2620 H   0  0
   -2.3150    3.2170   -0.0200 H   0  0
   -5.2740    0.1740   -0.8750 H   0  0
   -1.6600   -1.0490   -3.6600 H   0  0
   -1.2400    1.5510    1.3180 H   0  0
    0.9320   -0.9160   -2.4730 H   0  0
    0.3520   -1.7380   -1.0550 H   0  0
    1.1190    1.0510    1.4920 H   0  0
    2.2990    2.1330   -0.7600 H   0  0
    1.1250    1.8120   -2.0020 H   0  0
    4.5290   -1.2720   -0.0410 H   0  0
    2.7210    0.1870   -3.0630 H   0  0
    3.4100    1.7830   -2.9280 H   0  0
    0.0430   -1.5680    0.8130 H   0  0
    4.2640   -2.0720    1.5490 H   0  0
    4.9450   -0.1190   -2.1740 H   0  0
    4.7460    1.1800   -1.0250 H   0  0
   -0.4610   -3.2150    2.5880 H   0  0
    3.7520   -3.7190    3.3240 H   0  0
    2.0680   -4.8710    4.5060 H   0  0
  1  2  1  0
  2  3  2  0
  2  4  1  0
  3  5  1  0
  4  6  2  0
  5  7  2  0
  7  8  1  0
  8  9  1  0
  8 10  1  0
  9 11  2  0
 10 12  2  0
 10 13  1  0
 12 14  1  0
 13 15  2  0
 16 14  1  0
 16 17  1  0
 16 18  1  0
 17 19  1  0
 17 20  2  0
 18 21  1  0
 19 22  2  0
 19 23  1  0
 20 24  1  0
 22 25  1  0
 23 26  2  0
 25 27  2  0
 27 28  1  0
  6  7  1  0
 11 12  1  0
 15 16  1  0
 21 24  1  0
 26 27  1  0
  3 29  1  0
  4 30  1  0
  5 31  1  0
  6 32  1  0
 11 33  1  0
 13 34  1  0
 14 35  1  0
 14 36  1  0
 15 37  1  0
 18 38  1  0
 18 39  1  0
 20 40  1  0
 21 41  1  0
 21 42  1  0
 22 43  1  0
 23 44  1  0
 24 45  1  0
 24 46  1  0
 25 47  1  0
 26 48  1  0
 28 49  1  0
M  END
> <Name>
CHEMBL4536521

> <IC50 nM>
10

> <Molecule_ChEMBL_ID>
CHEMBL4536521

> <Smiles>
Oc1ccc(C2=CCCC[C@]23C=Cc2c(cnn2-c2ccc(F)cc2)C3)cc1

$$$$
CHEMBL4575732
  SciTegic08162514323D

 48 52  0  0  1  0            999 V2000
   -5.7700   -3.3030    3.7360 F   0  0
   -5.0370   -2.3670    3.1370 C   0  0
   -3.6860   -2.2030    3.4820 C   0  0
   -5.6150   -1.5410    2.1560 C   0  0
   -2.9100   -1.2150    2.8510 C   0  0
   -4.8440   -0.5530    1.5230 C   0  0
   -3.4880   -0.3870    1.8690 C   0  0
   -2.7420    0.5680    1.2580 N   0  0
   -3.1500    1.8460    1.0350 N   0  0
   -1.4810    0.4020    0.7770 C   0  0
   -2.2170    2.6030    0.3960 C   0  0
   -1.2070    1.6540    0.2520 C   0  0
   -0.5530   -0.7420    0.7560 C   0  0
    0.1310    1.8730   -0.4440 C   0  0
    0.7190   -0.5270    0.3590 C   0  0
    1.2440    0.8830    0.0370 C   0  0  1  0  0  0
    2.4770    0.8590   -0.9080 C   0  0  2  0  0  0
    1.9000    1.4530    1.3080 C   0  0
    2.8380    2.1700   -1.3170 O   0  0
    2.2730    0.0470   -2.1430 C   0  0
    3.6020    0.3090   -0.0120 C   0  0
    3.2540    0.7480    1.4120 C   0  0
    3.3710   -0.2850   -2.9570 C   0  0
    0.9820   -0.3890   -2.4940 C   0  0
    3.1780   -1.0510   -4.1210 C   0  0
    0.7910   -1.1540   -3.6580 C   0  0
    1.8870   -1.4840   -4.4710 C   0  0
   -3.2360   -2.8360    4.2360 H   0  0
   -6.6540   -1.6640    1.8870 H   0  0
   -1.8730   -1.1040    3.1310 H   0  0
   -5.3070    0.0720    0.7710 H   0  0
   -2.2890    3.6430    0.1030 H   0  0
   -0.8790   -1.7310    1.0490 H   0  0
    0.4390    2.9120   -0.3210 H   0  0
   -0.0450    1.7340   -1.5100 H   0  0
    1.3810   -1.3770    0.2730 H   0  0
    2.0620    2.5180    1.2190 H   0  0
    1.3010    1.3070    2.1950 H   0  0
    3.6880    2.1020   -1.7800 H   0  0
    4.5860    0.6460   -0.3110 H   0  0
    3.6330   -0.7720   -0.0410 H   0  0
    4.0040    1.4060    1.8260 H   0  0
    3.1840   -0.1130    2.0600 H   0  0
    4.3650    0.0450   -2.6940 H   0  0
    0.1350   -0.1370   -1.8730 H   0  0
    4.0220   -1.3050   -4.7460 H   0  0
   -0.2010   -1.4860   -3.9280 H   0  0
    1.7400   -2.0720   -5.3660 H   0  0
  1  2  1  0
  2  3  2  0
  2  4  1  0
  3  5  1  0
  4  6  2  0
  5  7  2  0
  7  8  1  0
  8  9  1  0
  8 10  1  0
  9 11  2  0
 10 12  2  0
 10 13  1  0
 12 14  1  0
 13 15  2  0
 16 14  1  0
 16 17  1  0
 16 18  1  0
 17 19  1  0
 17 20  1  0
 17 21  1  0
 18 22  1  0
 20 23  2  0
 20 24  1  0
 23 25  1  0
 24 26  2  0
 25 27  2  0
  6  7  1  0
 11 12  1  0
 16 15  1  0
 21 22  1  0
 26 27  1  0
  3 28  1  0
  4 29  1  0
  5 30  1  0
  6 31  1  0
 11 32  1  0
 13 33  1  0
 14 34  1  0
 14 35  1  0
 15 36  1  0
 18 37  1  0
 18 38  1  0
 19 39  1  0
 21 40  1  0
 21 41  1  0
 22 42  1  0
 22 43  1  0
 23 44  1  0
 24 45  1  0
 25 46  1  0
 26 47  1  0
 27 48  1  0
M  END
> <Name>
CHEMBL4575732

> <IC50 nM>
1000

> <Molecule_ChEMBL_ID>
CHEMBL4575732

> <Smiles>
O[C@@]1(c2ccccc2)CCC[C@]12C=Cc1c(cnn1-c1ccc(F)cc1)C2

$$$$
CHEMBL4562723
  SciTegic08162514323D

 46 49  0  0  1  0            999 V2000
    7.4220   -0.7480    2.5080 F   0  0
    6.3420   -0.5080    1.7680 C   0  0
    6.4570   -0.4100    0.3690 C   0  0
    5.0880   -0.3540    2.3810 C   0  0
    5.3160   -0.1560   -0.4140 C   0  0
    3.9470   -0.1000    1.6000 C   0  0
    4.0590   -0.0020    0.1990 C   0  0
    2.9570    0.2420   -0.5570 N   0  0
    2.9020    1.1410   -1.5760 N   0  0
    1.7480   -0.3590   -0.4140 C   0  0
    1.6830    1.1910   -2.1800 C   0  0
    1.0120    0.2300   -1.4260 C   0  0
    1.2300   -1.3770    0.5200 C   0  0
   -0.4300   -0.2270   -1.6250 C   0  0
   -0.0940   -1.6270    0.5250 C   0  0
   -1.0920   -0.8200   -0.3220 C   0  0  1  0  0  0
   -1.7270    0.2750    0.6090 C   0  0  1  0  0  0
   -2.2170   -1.7850   -0.7660 C   0  0
   -1.0020    1.4920    0.5270 O   0  0
   -3.2440    0.5310    0.3750 C   0  0  2  0  0  0
   -3.3110   -1.0860   -1.5960 C   0  0
   -3.6410    0.3320   -1.0940 C   0  0
   -3.7480    1.8770    0.9200 C   0  0
   -5.2070    1.8950    0.9690 C   0  0
   -6.3970    1.9080    1.0080 C   0  0
    7.4180   -0.5270   -0.1070 H   0  0
    4.9960   -0.4280    3.4550 H   0  0
    5.4260   -0.0840   -1.4880 H   0  0
    2.9900    0.0160    2.0920 H   0  0
    1.3750    1.8140   -3.0100 H   0  0
    1.8980   -1.9100    1.1820 H   0  0
   -1.0200    0.5920   -2.0390 H   0  0
   -0.3970   -0.9900   -2.4040 H   0  0
   -0.4630   -2.4220    1.1560 H   0  0
   -1.6330   -0.0250    1.6540 H   0  0
   -2.6800   -2.2290    0.1170 H   0  0
   -1.8090   -2.6250   -1.3360 H   0  0
   -1.1210    1.9530    1.3730 H   0  0
   -3.7810   -0.2340    0.9380 H   0  0
   -3.0140   -1.0350   -2.6430 H   0  0
   -4.2110   -1.7010   -1.5700 H   0  0
   -3.1270    1.0740   -1.7050 H   0  0
   -4.7030    0.5250   -1.2300 H   0  0
   -3.3970    2.6990    0.2970 H   0  0
   -3.3500    2.0620    1.9160 H   0  0
   -7.4510    1.9200    1.0430 H   0  0
  1  2  1  0
  2  3  2  0
  2  4  1  0
  3  5  1  0
  4  6  2  0
  5  7  2  0
  7  8  1  0
  8  9  1  0
  8 10  1  0
  9 11  2  0
 10 12  2  0
 10 13  1  0
 12 14  1  0
 13 15  2  0
 16 14  1  0
 16 17  1  0
 16 18  1  0
 17 19  1  0
 17 20  1  0
 18 21  1  0
 20 22  1  0
 20 23  1  0
 23 24  1  0
 24 25  3  0
  6  7  1  0
 11 12  1  0
 16 15  1  0
 21 22  1  0
  3 26  1  0
  4 27  1  0
  5 28  1  0
  6 29  1  0
 11 30  1  0
 13 31  1  0
 14 32  1  0
 14 33  1  0
 15 34  1  0
 17 35  1  0
 18 36  1  0
 18 37  1  0
 19 38  1  0
 20 39  1  0
 21 40  1  0
 21 41  1  0
 22 42  1  0
 22 43  1  0
 23 44  1  0
 23 45  1  0
 25 46  1  0
M  END
> <Name>
CHEMBL4562723

> <IC50 nM>
1000

> <Molecule_ChEMBL_ID>
CHEMBL4562723

> <Smiles>
C#CC[C@H]1CCC[C@]2(C=Cc3c(cnn3-c3ccc(F)cc3)C2)[C@H]1O

$$$$
CHEMBL4065892
  SciTegic08162514323D

 76 81  0  0  1  0            999 V2000
   -4.8790   -2.0000   -4.8870 F   0  0
   -3.6970   -2.0060   -5.5840 C   0  0
   -3.9630   -1.9740   -6.9300 F   0  0
   -2.8460   -0.8300   -5.1880 C   0  0
   -2.9140   -3.2750   -5.2500 C   0  0
   -2.3460   -0.1150   -6.0240 O   0  0
   -2.6450   -0.5860   -3.8600 N   0  0
   -1.8120    0.5590   -3.4530 C   0  0  1  0  0  0
   -2.1780    1.0280   -2.0450 C   0  0  2  0  0  0
   -0.3260    0.2350   -3.6020 C   0  0
   -2.2030   -0.0860   -1.1660 O   0  0
   -3.4860    1.7010   -2.0220 C   0  0
   -1.0310   -0.5640   -0.7230 C   0  0
   -4.6700    0.9420   -1.8590 C   0  0
   -3.5610    3.1080   -2.1600 C   0  0
   -0.7620   -1.9570   -0.8010 C   0  0
   -0.0640    0.3220   -0.1780 C   0  0
   -5.9280    1.5880   -1.8400 C   0  0
   -4.8160    3.7580   -2.1250 C   0  0
    0.4820   -2.4510   -0.3300 C   0  0
    1.1740   -0.1760    0.2930 C   0  0
   -7.0590    0.8630   -1.7190 O   0  0
   -6.0000    3.0040   -1.9490 C   0  0
    1.4040   -1.5680    0.1970 C   0  0
    0.8160   -3.7950   -0.3730 C   0  0
   -8.3240    1.4770   -1.9900 C   0  0
   -7.1950    3.6250   -1.8870 O   0  0
    2.4340   -2.3890    0.5310 N   0  0
    2.0700   -3.6740    0.1910 N   0  0
   -8.3420    2.9040   -1.4180 C   0  0
    3.6130   -2.0270    1.0980 C   0  0
    3.6390   -1.0760    2.1370 C   0  0
    4.8170   -2.6030    0.6460 C   0  0
    4.8630   -0.7050    2.7210 C   0  0
    6.0390   -2.2300    1.2300 C   0  0
    4.8910    0.3030    3.8220 C   0  0
    6.0630   -1.2830    2.2680 C   0  0
    4.0040    1.1150    3.9430 O   0  0
    5.9400    0.2910    4.6990 N   0  0
    5.9810    1.2810    5.7930 C   0  0  2  0  0  0
    7.2810    1.2620    6.5920 C   0  0
    4.9180    1.0630    6.8850 C   0  0
    6.8930    1.8560    7.8030 O   0  0
    5.6490    1.3360    8.2010 C   0  0
   -3.4590   -4.1760   -5.5310 H   0  0
   -2.7090   -3.3300   -4.1800 H   0  0
   -1.9590   -3.2870   -5.7740 H   0  0
   -3.0590   -1.1800   -3.1700 H   0  0
   -1.9390    1.3650   -4.1740 H   0  0
   -1.4080    1.7170   -1.7010 H   0  0
   -0.0740    0.0490   -4.6450 H   0  0
    0.2850    1.0550   -3.2270 H   0  0
   -0.0680   -0.6600   -3.0330 H   0  0
   -4.6170   -0.1330   -1.7560 H   0  0
   -2.6600    3.6920   -2.2910 H   0  0
   -1.5040   -2.6250   -1.2190 H   0  0
   -0.2750    1.3810   -0.1210 H   0  0
   -4.8690    4.8320   -2.2310 H   0  0
    1.9180    0.4880    0.7110 H   0  0
    0.3090   -4.6850   -0.7210 H   0  0
   -8.4670    1.5040   -3.0720 H   0  0
   -9.1150    0.8580   -1.5670 H   0  0
   -9.2400    3.4470   -1.7030 H   0  0
   -8.3030    2.8710   -0.3280 H   0  0
    2.7230   -0.6270    2.4920 H   0  0
    4.8180   -3.3360   -0.1500 H   0  0
    6.9610   -2.6740    0.8850 H   0  0
    7.0080   -1.0020    2.7130 H   0  0
    6.6680   -0.3850    4.5920 H   0  0
    5.8460    2.2620    5.3590 H   0  0
    7.6230    0.2560    6.7950 H   0  0
    8.0800    1.8220    6.1330 H   0  0
    4.0860    1.7400    6.7480 H   0  0
    4.5180    0.0570    6.8870 H   0  0
    5.8200    0.4140    8.7440 H   0  0
    5.1390    2.0350    8.8480 H   0  0
  1  2  1  0
  2  3  1  0
  2  4  1  0
  2  5  1  0
  4  6  2  0
  4  7  1  0
  7  8  1  0
  8  9  1  0
  8 10  1  0
  9 11  1  0
  9 12  1  0
 11 13  1  0
 12 14  2  0
 12 15  1  0
 13 16  2  0
 13 17  1  0
 14 18  1  0
 15 19  2  0
 16 20  1  0
 17 21  2  0
 18 22  1  0
 18 23  2  0
 20 24  2  0
 20 25  1  0
 22 26  1  0
 23 27  1  0
 24 28  1  0
 25 29  2  0
 26 30  1  0
 28 31  1  0
 31 32  2  0
 31 33  1  0
 32 34  1  0
 33 35  2  0
 34 36  1  0
 34 37  2  0
 36 38  2  0
 36 39  1  0
 40 39  1  0
 40 41  1  0
 40 42  1  0
 41 43  1  0
 42 44  1  0
 19 23  1  0
 21 24  1  0
 27 30  1  0
 28 29  1  0
 35 37  1  0
 43 44  1  0
  5 45  1  0
  5 46  1  0
  5 47  1  0
  7 48  1  0
  8 49  1  0
  9 50  1  0
 10 51  1  0
 10 52  1  0
 10 53  1  0
 14 54  1  0
 15 55  1  0
 16 56  1  0
 17 57  1  0
 19 58  1  0
 21 59  1  0
 25 60  1  0
 26 61  1  0
 26 62  1  0
 30 63  1  0
 30 64  1  0
 32 65  1  0
 33 66  1  0
 35 67  1  0
 37 68  1  0
 39 69  1  0
 40 70  1  0
 41 71  1  0
 41 72  1  0
 42 73  1  0
 42 74  1  0
 44 75  1  0
 44 76  1  0
M  END
> <Name>
CHEMBL4065892

> <IC50 nM>
1000

> <Molecule_ChEMBL_ID>
CHEMBL4065892

> <Smiles>
C[C@@H](NC(=O)C(C)(F)F)[C@H](Oc1ccc2c(cnn2-c2cccc(C(=O)N[C@H]3CCOC3)c2)c1)c1ccc2c(c1)OCCO2

$$$$
CHEMBL3940435
  SciTegic08162514323D

 51 54  0  0  0  0            999 V2000
   -3.5510    4.4120    3.2320 Cl  0  0
   -2.1700    3.4690    2.8590 C   0  0
   -1.8870    2.3070    3.6030 C   0  0
   -1.3160    3.8520    1.8070 C   0  0
   -0.7520    1.5350    3.2970 C   0  0
   -0.1820    3.0780    1.5040 C   0  0
    0.0980    1.9220    2.2480 C   0  0
    1.4900    0.9730    1.8750 S   0  0
    1.3440   -0.3240    2.5120 O   0  0
    2.6700    1.6970    2.3140 O   0  0
    1.6430    0.7170    0.2810 N   0  0
    0.5250    0.5820   -0.5000 C   0  0
    2.9790    0.6310   -0.3240 C   0  0
    0.4880    1.1540   -1.7850 C   0  0
   -0.5900   -0.1310   -0.0200 C   0  0
    3.8580   -0.3070    0.4200 C   0  0
   -0.6580    1.0140   -2.5840 C   0  0
   -1.7340   -0.2700   -0.8220 C   0  0
    3.3830   -1.5800    0.7810 C   0  0
    5.1660    0.0780    0.7640 C   0  0
   -1.7730    0.3030   -2.1060 C   0  0
    4.2150   -2.4690    1.4840 C   0  0
    5.9980   -0.8110    1.4670 C   0  0
   -2.8480    0.1720   -2.8580 O   0  0
    5.5240   -2.0820    1.8280 C   0  0
   -3.4650   -0.9920   -2.8580 C   0  0
   -4.8690   -1.0470   -2.8580 C   0  0
   -2.7210   -2.1860   -2.8580 C   0  0
   -5.5270   -2.2890   -2.8580 C   0  0
   -3.3790   -3.4280   -2.8580 C   0  0
   -4.7810   -3.4810   -2.8580 C   0  0
   -2.5330    2.0000    4.4140 H   0  0
   -1.5210    4.7400    1.2260 H   0  0
   -0.5370    0.6430    3.8690 H   0  0
    0.4730    3.3750    0.6970 H   0  0
    3.4320    1.6230   -0.3360 H   0  0
    2.8810    0.2970   -1.3580 H   0  0
    1.3360    1.7050   -2.1720 H   0  0
   -0.5820   -0.5780    0.9650 H   0  0
   -0.6820    1.4550   -3.5710 H   0  0
   -2.5880   -0.8160   -0.4490 H   0  0
    2.3790   -1.8830    0.5190 H   0  0
    5.5370    1.0550    0.4900 H   0  0
    3.8500   -3.4450    1.7620 H   0  0
    7.0020   -0.5140    1.7320 H   0  0
    6.1620   -2.7660    2.3690 H   0  0
   -5.4470   -0.1350   -2.8580 H   0  0
   -1.6410   -2.1500   -2.8580 H   0  0
   -6.6070   -2.3280   -2.8580 H   0  0
   -2.8050   -4.3440   -2.8580 H   0  0
   -5.2870   -4.4340   -2.8580 H   0  0
  1  2  1  0
  2  3  2  0
  2  4  1  0
  3  5  1  0
  4  6  2  0
  5  7  2  0
  7  8  1  0
  8  9  2  0
  8 10  2  0
  8 11  1  0
 11 12  1  0
 11 13  1  0
 12 14  2  0
 12 15  1  0
 13 16  1  0
 14 17  1  0
 15 18  2  0
 16 19  2  0
 16 20  1  0
 17 21  2  0
 19 22  1  0
 20 23  2  0
 21 24  1  0
 22 25  2  0
 24 26  1  0
 26 27  2  0
 26 28  1  0
 27 29  1  0
 28 30  2  0
 29 31  2  0
  6  7  1  0
 18 21  1  0
 23 25  1  0
 30 31  1  0
  3 32  1  0
  4 33  1  0
  5 34  1  0
  6 35  1  0
 13 36  1  0
 13 37  1  0
 14 38  1  0
 15 39  1  0
 17 40  1  0
 18 41  1  0
 19 42  1  0
 20 43  1  0
 22 44  1  0
 23 45  1  0
 25 46  1  0
 27 47  1  0
 28 48  1  0
 29 49  1  0
 30 50  1  0
 31 51  1  0
M  END
> <Name>
CHEMBL3940435

> <IC50 nM>
2400

> <Molecule_ChEMBL_ID>
CHEMBL3940435

> <Smiles>
O=S(=O)(c1ccc(Cl)cc1)N(Cc1ccccc1)c1ccc(Oc2ccccc2)cc1

$$$$
CHEMBL4101996
  SciTegic08162514323D

 59 62  0  0  0  0            999 V2000
    0.4390    1.4100    0.9770 S   0  0
   -0.1250    0.9470    2.2320 O   0  0
    1.5100    2.3750    1.1500 O   0  0
    1.0620    0.1190    0.2190 N   0  0
   -0.8180    2.1540    0.0590 C   0  0
    1.6150   -0.9000    0.9470 C   0  0
    1.0350    0.0450   -1.2480 C   0  0
   -1.9140    1.3890   -0.3770 C   0  0
   -0.7420    3.5220   -0.2520 C   0  0
    1.5640   -2.2210    0.4610 C   0  0
    2.2320   -0.6330    2.1820 C   0  0
    1.4730    1.3220   -1.8690 C   0  0
   -2.9400    1.9960   -1.1250 C   0  0
   -1.7680    4.1290   -1.0000 C   0  0
    2.1330   -3.2660    1.2090 C   0  0
    2.7990   -1.6820    2.9280 C   0  0
    2.7620    1.8240   -1.6150 C   0  0
    0.5980    2.0310   -2.7130 C   0  0
   -2.8670    3.3670   -1.4380 C   0  0
    2.7520   -3.0000    2.4430 C   0  0
    3.1740    3.0330   -2.2030 C   0  0
    1.0120    3.2400   -3.3010 C   0  0
   -3.8650    3.9570   -2.1660 N   0  0
    3.2830   -3.9820    3.1430 O   0  0
    2.3010    3.7400   -3.0450 C   0  0
   -5.1720    3.6350   -1.9240 C   0  0
    2.6660   -5.1470    3.1430 C   0  0
   -5.4530    2.8300   -1.0680 O   0  0
   -6.0720    4.2580   -2.6800 O   0  0
    1.2600   -5.2010    3.1430 C   0  0
    3.4100   -6.3400    3.1430 C   0  0
   -7.4010    3.8590   -2.3770 C   0  0
    0.6020   -6.4430    3.1430 C   0  0
    2.7520   -7.5820    3.1430 C   0  0
    1.3480   -7.6330    3.1430 C   0  0
    0.0210   -0.1890   -1.5760 H   0  0
    1.6890   -0.7620   -1.5780 H   0  0
   -1.9710    0.3380   -0.1370 H   0  0
    0.1000    4.1080    0.0840 H   0  0
    1.0960   -2.4470   -0.4860 H   0  0
    2.2810    0.3750    2.5720 H   0  0
   -3.7750    1.3950   -1.4510 H   0  0
   -1.6930    5.1820   -1.2300 H   0  0
    2.0940   -4.2770    0.8320 H   0  0
    3.2730   -1.4710    3.8750 H   0  0
    3.4380    1.2850   -0.9690 H   0  0
   -0.3950    1.6520   -2.9140 H   0  0
    4.1640    3.4180   -2.0060 H   0  0
    0.3400    3.7830   -3.9470 H   0  0
   -3.6390    4.6250   -2.8770 H   0  0
    2.6170    4.6680   -3.4960 H   0  0
    0.6840   -4.2870    3.1430 H   0  0
    4.4880   -6.3050    3.1430 H   0  0
   -8.0840    4.4770   -2.9610 H   0  0
   -7.4750    2.7810   -2.5290 H   0  0
   -7.5860    4.0610   -1.3220 H   0  0
   -0.4790   -6.4810    3.1430 H   0  0
    3.3260   -8.4960    3.1430 H   0  0
    0.8420   -8.5880    3.1430 H   0  0
  1  2  2  0
  1  3  2  0
  1  4  1  0
  1  5  1  0
  4  6  1  0
  4  7  1  0
  5  8  2  0
  5  9  1  0
  6 10  2  0
  6 11  1  0
  7 12  1  0
  8 13  1  0
  9 14  2  0
 10 15  1  0
 11 16  2  0
 12 17  2  0
 12 18  1  0
 13 19  2  0
 15 20  2  0
 17 21  1  0
 18 22  2  0
 19 23  1  0
 20 24  1  0
 21 25  2  0
 23 26  1  0
 24 27  1  0
 26 28  2  0
 26 29  1  0
 27 30  2  0
 27 31  1  0
 29 32  1  0
 30 33  1  0
 31 34  2  0
 33 35  2  0
 14 19  1  0
 16 20  1  0
 22 25  1  0
 34 35  1  0
  7 36  1  0
  7 37  1  0
  8 38  1  0
  9 39  1  0
 10 40  1  0
 11 41  1  0
 13 42  1  0
 14 43  1  0
 15 44  1  0
 16 45  1  0
 17 46  1  0
 18 47  1  0
 21 48  1  0
 22 49  1  0
 23 50  1  0
 25 51  1  0
 30 52  1  0
 31 53  1  0
 32 54  1  0
 32 55  1  0
 32 56  1  0
 33 57  1  0
 34 58  1  0
 35 59  1  0
M  END
> <Name>
CHEMBL4101996

> <IC50 nM>
2110

> <Molecule_ChEMBL_ID>
CHEMBL4101996

> <Smiles>
COC(=O)Nc1ccc(S(=O)(=O)N(Cc2ccccc2)c2ccc(Oc3ccccc3)cc2)cc1

$$$$
CHEMBL4069804
  SciTegic08162514323D

 58 61  0  0  0  0            999 V2000
    1.1670    3.1820    0.1650 S   0  0
    1.7690    4.0550   -0.8270 O   0  0
    1.6060    3.4660    1.5200 O   0  0
    1.6160    1.6650   -0.1840 N   0  0
   -0.5460    3.3810    0.0960 C   0  0
    1.0580    1.0140   -1.2520 C   0  0
    2.6230    0.9870    0.6450 C   0  0
   -1.0940    4.5340   -0.4930 C   0  0
   -1.3880    2.3900    0.6300 C   0  0
    0.4260    1.7480   -2.2740 C   0  0
    1.1150   -0.3900   -1.3310 C   0  0
    1.9700    0.2820    1.8340 C   0  0
   -2.4880    4.7000   -0.5510 C   0  0
   -2.7840    2.5500    0.5750 C   0  0
   -0.1470    1.0780   -3.3690 C   0  0
    0.5420   -1.0560   -2.4280 C   0  0
    2.9760   -0.4870    2.6900 C   0  0
   -3.3290    3.7050   -0.0160 C   0  0
   -0.0900   -0.3250   -3.4490 C   0  0
    2.3110   -1.1920    3.8160 C   0  0
   -4.7570    3.8710   -0.0740 C   0  0
   -0.6280   -0.9510   -4.4770 O   0  0
    2.4360   -0.7000    5.1280 C   0  0
    1.5550   -2.3530    3.5710 C   0  0
   -5.9080    4.0050   -0.1210 N   0  0
   -1.2260   -2.1040   -4.2550 C   0  0
    1.8060   -1.3680    6.1930 C   0  0
    0.9250   -3.0200    4.6370 C   0  0
   -1.1280   -3.1430   -5.1970 C   0  0
   -1.9640   -2.3010   -3.0740 C   0  0
    1.0510   -2.5280    5.9470 C   0  0
   -1.7660   -4.3730   -4.9610 C   0  0
   -2.6020   -3.5300   -2.8370 C   0  0
   -2.5030   -4.5670   -3.7810 C   0  0
    3.3570    1.7180    0.9870 H   0  0
    3.1740    0.2760    0.0300 H   0  0
   -0.4440    5.2950   -0.9020 H   0  0
   -0.9650    1.5060    1.0830 H   0  0
    0.3710    2.8270   -2.2310 H   0  0
    1.5970   -0.9710   -0.5570 H   0  0
    1.1680   -0.3760    1.4980 H   0  0
    1.4080    0.9910    2.4420 H   0  0
   -2.8970    5.5910   -1.0070 H   0  0
   -3.4210    1.7800    0.9890 H   0  0
   -0.6310    1.6450   -4.1500 H   0  0
    0.5880   -2.1340   -2.4850 H   0  0
    3.7400    0.1850    3.0830 H   0  0
    3.5270   -1.2070    2.0850 H   0  0
    3.0140    0.1910    5.3230 H   0  0
    1.4550   -2.7370    2.5660 H   0  0
    1.9020   -0.9900    7.2000 H   0  0
    0.3450   -3.9110    4.4480 H   0  0
   -0.5630   -2.9980   -6.1060 H   0  0
   -2.0430   -1.5070   -2.3470 H   0  0
    0.5670   -3.0410    6.7650 H   0  0
   -1.6900   -5.1690   -5.6870 H   0  0
   -3.1690   -3.6790   -1.9290 H   0  0
   -2.9940   -5.5120   -3.5990 H   0  0
  1  2  2  0
  1  3  2  0
  1  4  1  0
  1  5  1  0
  4  6  1  0
  4  7  1  0
  5  8  2  0
  5  9  1  0
  6 10  2  0
  6 11  1  0
  7 12  1  0
  8 13  1  0
  9 14  2  0
 10 15  1  0
 11 16  2  0
 12 17  1  0
 13 18  2  0
 15 19  2  0
 17 20  1  0
 18 21  1  0
 19 22  1  0
 20 23  2  0
 20 24  1  0
 21 25  3  0
 22 26  1  0
 23 27  1  0
 24 28  2  0
 26 29  2  0
 26 30  1  0
 27 31  2  0
 29 32  1  0
 30 33  2  0
 32 34  2  0
 14 18  1  0
 16 19  1  0
 28 31  1  0
 33 34  1  0
  7 35  1  0
  7 36  1  0
  8 37  1  0
  9 38  1  0
 10 39  1  0
 11 40  1  0
 12 41  1  0
 12 42  1  0
 13 43  1  0
 14 44  1  0
 15 45  1  0
 16 46  1  0
 17 47  1  0
 17 48  1  0
 23 49  1  0
 24 50  1  0
 27 51  1  0
 28 52  1  0
 29 53  1  0
 30 54  1  0
 31 55  1  0
 32 56  1  0
 33 57  1  0
 34 58  1  0
M  END
> <Name>
CHEMBL4069804

> <IC50 nM>
30000

> <Molecule_ChEMBL_ID>
CHEMBL4069804

> <Smiles>
N#Cc1ccc(S(=O)(=O)N(CCCc2ccccc2)c2ccc(Oc3ccccc3)cc2)cc1

$$$$
CHEMBL61
  SciTegic08162514323D

 52 56  0  0  1  0            999 V2000
    3.2090   -0.0430    2.0800 O   0  0
    3.0860    0.6760    1.1150 C   0  0
    4.0180    0.8790    0.1880 O   0  0
    1.8300    1.4470    0.8300 C   0  0  2  0  0  0
    3.4880    1.8400   -0.7280 C   0  0
    0.4400    0.8440    1.1100 C   0  0  1  0  0  0
    1.9670    1.6760   -0.6720 C   0  0  2  0  0  0
   -0.6440    1.6760    0.4980 C   0  0
    0.3110   -0.5700    0.6430 C   0  0
    1.0180    2.8140   -1.0700 C   0  0  2  0  0  0
   -0.3730    2.6170   -0.5430 C   0  0
   -1.9760    1.5390    0.9650 C   0  0
    0.6450   -1.6290    1.5040 C   0  0
   -0.1460   -0.8440   -0.6580 C   0  0
    1.0430    2.9040   -2.4840 O   0  0
   -1.4490    3.3810   -1.0600 C   0  0
   -3.0410    2.3070    0.4280 C   0  0
    0.5240   -2.9590    1.0680 C   0  0
   -0.2690   -2.1720   -1.1000 C   0  0
   -2.7750    3.2290   -0.5860 C   0  0
   -4.3440    2.3320    0.7110 O   0  0
    0.8380   -3.9490    1.8810 O   0  0
    0.0670   -3.2320   -0.2340 C   0  0
   -0.6970   -2.4220   -2.3200 O   0  0
   -3.9140    3.8300   -0.9350 O   0  0
   -4.9960    3.3010   -0.1390 C   0  0
    1.2930   -3.6210    3.1860 C   0  0
   -0.0490   -4.4810   -0.6460 O   0  0
   -1.0800   -1.3220   -3.1310 C   0  0
    0.3010   -5.5160    0.2600 C   0  0
    1.9120    2.3890    1.3560 H   0  0
    3.7850    2.8280   -0.4000 H   0  0
    3.8970    1.6700   -1.7130 H   0  0
    0.2990    0.8320    2.1920 H   0  0
    1.7150    0.7730   -1.2150 H   0  0
    1.3970    3.7600   -0.6820 H   0  0
   -2.1970    0.8340    1.7520 H   0  0
    0.9940   -1.4240    2.5060 H   0  0
   -0.4040   -0.0330   -1.3240 H   0  0
    0.6700    3.7680   -2.7210 H   0  0
   -1.2670    4.1070   -1.8400 H   0  0
   -5.7250    2.8130   -0.7710 H   0  0
   -5.4430    4.0820    0.4570 H   0  0
    1.5470   -4.4550    3.8380 H   0  0
    0.5200   -3.0330    3.6800 H   0  0
    2.1780   -2.9900    3.0900 H   0  0
   -1.3570   -1.7010   -4.1150 H   0  0
   -1.8460   -0.7560   -2.6000 H   0  0
   -0.2130   -0.6720   -3.2580 H   0  0
    0.1970   -6.5370   -0.1030 H   0  0
   -0.3200   -5.4140    1.1510 H   0  0
    1.3400   -5.3710    0.5610 H   0  0
  1  2  2  0
  2  3  1  0
  4  2  1  0
  3  5  1  0
  4  6  1  0
  4  7  1  0
  6  8  1  0
  6  9  1  0
  7 10  1  0
  8 11  2  0
  8 12  1  0
  9 13  2  0
  9 14  1  0
 10 15  1  0
 11 16  1  0
 12 17  2  0
 13 18  1  0
 14 19  2  0
 16 20  2  0
 17 21  1  0
 18 22  1  0
 18 23  2  0
 19 24  1  0
 20 25  1  0
 21 26  1  0
 22 27  1  0
 23 28  1  0
 24 29  1  0
 28 30  1  0
  7  5  1  0
 10 11  1  0
 17 20  1  0
 19 23  1  0
 25 26  1  0
  4 31  1  0
  5 32  1  0
  5 33  1  0
  6 34  1  0
  7 35  1  0
 10 36  1  0
 12 37  1  0
 13 38  1  0
 14 39  1  0
 15 40  1  0
 16 41  1  0
 26 42  1  0
 26 43  1  0
 27 44  1  0
 27 45  1  0
 27 46  1  0
 29 47  1  0
 29 48  1  0
 29 49  1  0
 30 50  1  0
 30 51  1  0
 30 52  1  0
M  END
> <Name>
CHEMBL61

> <IC50 nM>
14

> <Molecule_ChEMBL_ID>
CHEMBL61

> <Smiles>
COc1cc([C@@H]2c3cc4c(cc3[C@H](O)[C@H]3COC(=O)[C@H]23)OCO4)cc(OC)c1OC

$$$$
CHEMBL1082723
  SciTegic08162514323D

 40 44  0  0  1  0            999 V2000
    5.1330    3.7890    1.8060 Cl  0  0
    4.1330    2.5290    1.2110 C   0  0
    4.6850    1.4490    0.4570 C   0  0
    2.7360    2.5660    1.4740 C   0  0
    5.9920    1.3930    0.1990 F   0  0
    3.8440    0.4140   -0.0280 C   0  0
    1.9260    1.5200    0.9780 C   0  0
    2.4590    0.4820    0.2540 C   0  0
    0.5580    1.2870    1.0760 N   0  0
    1.5140   -0.4060   -0.1230 C   0  0
    0.3030    0.0740    0.3830 C   0  0
    1.5980   -1.6930   -0.9280 C   0  0
   -1.0330   -0.6470    0.1950 C   0  0  1  0  0  0
    0.3160   -2.5510   -0.7170 C   0  0  1  0  0  0
   -0.9200   -1.7380   -0.8110 N   0  0
   -1.5700   -1.1950    1.5170 C   0  0
   -2.1430    0.3180   -0.1330 C   0  0
    0.2460   -3.7050   -1.7210 C   0  0
   -1.0160   -2.0310    2.1930 O   0  0
   -2.8190   -0.6230    1.9020 N   0  0
   -3.1510    0.3340    0.8360 C   0  0
   -2.3240    1.1930   -1.2400 C   0  0
   -4.3030    1.1480    0.7770 C   0  0
   -3.4650    2.0330   -1.3460 C   0  0
   -4.4550    2.0080   -0.3320 C   0  0
   -3.6450    3.0720   -2.6980 Cl  0  0
    2.2950    3.3750    2.0410 H   0  0
    4.2580   -0.4060   -0.6000 H   0  0
   -0.1100    1.8570    1.5390 H   0  0
    1.7130   -1.4300   -1.9790 H   0  0
    2.4840   -2.2600   -0.6370 H   0  0
    0.3570   -2.9940    0.2790 H   0  0
   -0.9630   -1.3500   -1.7660 H   0  0
   -0.6310   -4.3240   -1.5350 H   0  0
    0.2030   -3.3240   -2.7420 H   0  0
    1.1270   -4.3420   -1.6390 H   0  0
   -3.3850   -0.7950    2.7090 H   0  0
   -1.5690    1.2110   -2.0120 H   0  0
   -5.0490    1.1190    1.5580 H   0  0
   -5.3280    2.6430   -0.3970 H   0  0
  1  2  1  0
  2  3  2  0
  2  4  1  0
  3  5  1  0
  3  6  1  0
  4  7  2  0
  6  8  2  0
  7  9  1  0
  8 10  1  0
  9 11  1  0
 10 12  1  0
 13 11  1  0
 12 14  1  0
 13 15  1  0
 13 16  1  0
 13 17  1  0
 14 18  1  0
 16 19  2  0
 16 20  1  0
 17 21  2  0
 17 22  1  0
 21 23  1  0
 22 24  2  0
 23 25  2  0
 24 26  1  0
  7  8  1  0
 10 11  2  0
 14 15  1  0
 20 21  1  0
 24 25  1  0
  4 27  1  0
  6 28  1  0
  9 29  1  0
 12 30  1  0
 12 31  1  0
 14 32  1  0
 15 33  1  0
 18 34  1  0
 18 35  1  0
 18 36  1  0
 20 37  1  0
 22 38  1  0
 23 39  1  0
 25 40  1  0
M  END
> <Name>
CHEMBL1082723

> <IC50 nM>
30000

> <Molecule_ChEMBL_ID>
CHEMBL1082723

> <Smiles>
C[C@H]1Cc2c([nH]c3cc(Cl)c(F)cc23)[C@@]2(N1)C(=O)Nc1ccc(Cl)cc12

$$$$
CHEMBL236853
  SciTegic08162514323D

 56 59  0  0  1  0            999 V2000
   -2.7150    2.3870   -4.4260 Cl  0  0
   -2.7500    2.4790   -2.7170 C   0  0
   -3.4530    3.5020   -2.1170 N   0  0
   -2.0650    1.5080   -1.9430 C   0  0
   -3.5020    3.6090   -0.7420 C   0  0
   -2.0980    1.5940   -0.5270 C   0  0
   -2.8240    2.6560    0.0900 C   0  0
   -4.2290    4.6660   -0.1350 C   0  0
   -1.3790    0.5760    0.2640 C   0  0
   -2.8850    2.7830    1.5040 C   0  0
   -4.2810    4.7810    1.2720 C   0  0
    0.0720    0.9820    0.5160 C   0  0  3  0  0  0
   -3.6120    3.8440    2.0880 C   0  0
    0.6270    1.4160   -0.7070 O   0  0
    0.2010    2.1190    1.5290 C   0  0
    0.9240   -0.1720    1.0450 C   0  0
    1.5250    2.4260    1.7090 F   0  0
   -0.3440    1.7290    2.7250 F   0  0
   -0.4650    3.2250    1.0630 F   0  0
    0.9100   -1.3950    0.1150 C   0  0  3  0  0  0
    2.2170   -2.1250    0.1740 C   0  0
   -0.2850   -2.2830    0.5270 C   0  0
    0.6950   -0.9060   -1.3240 C   0  0
    2.2810   -3.5530    0.2580 C   0  0
    3.4320   -1.3850    0.1310 C   0  0
   -0.2170   -3.6580   -0.1350 C   0  0
    1.9710   -0.3500   -1.9550 C   0  0
    3.5430   -4.1990    0.3070 C   0  0
    1.0550   -4.3930    0.3050 C   0  0
    4.6820   -2.0410    0.1820 C   0  0
    4.7380   -3.4470    0.2700 C   0  0
   -1.5180    0.7090   -2.4240 H   0  0
   -4.7480    5.3970   -0.7400 H   0  0
   -1.9030    0.4120    1.2050 H   0  0
   -1.4280   -0.3850   -0.2500 H   0  0
   -2.3830    2.0800    2.1540 H   0  0
   -4.8360    5.5900    1.7250 H   0  0
   -3.6560    3.9380    3.1640 H   0  0
    1.5270    1.7270   -0.5180 H   0  0
    1.9470    0.1580    1.2300 H   0  0
    0.6130   -0.4490    2.0510 H   0  0
   -1.2270   -1.7950    0.2770 H   0  0
   -0.2950   -2.4200    1.6110 H   0  0
    0.2750   -1.7010   -1.9410 H   0  0
   -0.1080   -0.1700   -1.3650 H   0  0
    3.4100   -0.3090    0.0590 H   0  0
   -0.2310   -3.5470   -1.2210 H   0  0
   -1.0960   -4.2480    0.1250 H   0  0
    1.7890   -0.0370   -2.9820 H   0  0
    2.3420    0.5020   -1.3850 H   0  0
    2.7560   -1.1070   -1.9710 H   0  0
    3.6000   -5.2760    0.3730 H   0  0
    0.9280   -4.7420    1.3300 H   0  0
    1.1850   -5.2850   -0.3110 H   0  0
    5.5960   -1.4650    0.1520 H   0  0
    5.6930   -3.9490    0.3090 H   0  0
  1  2  1  0
  2  3  2  0
  2  4  1  0
  3  5  1  0
  4  6  2  0
  5  7  1  0
  5  8  2  0
  6  9  1  0
  7 10  2  0
  8 11  1  0
  9 12  1  0
 10 13  1  0
 12 14  1  0
 12 15  1  0
 12 16  1  0
 15 17  1  0
 15 18  1  0
 15 19  1  0
 16 20  1  0
 20 21  1  0
 20 22  1  0
 20 23  1  0
 21 24  2  0
 21 25  1  0
 22 26  1  0
 23 27  1  0
 24 28  1  0
 24 29  1  0
 25 30  2  0
 28 31  2  0
  6  7  1  0
 11 13  2  0
 26 29  1  0
 30 31  1  0
  4 32  1  0
  8 33  1  0
  9 34  1  0
  9 35  1  0
 10 36  1  0
 11 37  1  0
 13 38  1  0
 14 39  1  0
 16 40  1  0
 16 41  1  0
 22 42  1  0
 22 43  1  0
 23 44  1  0
 23 45  1  0
 25 46  1  0
 26 47  1  0
 26 48  1  0
 27 49  1  0
 27 50  1  0
 27 51  1  0
 28 52  1  0
 29 53  1  0
 29 54  1  0
 30 55  1  0
 31 56  1  0
M  END
> <Name>
CHEMBL236853

> <IC50 nM>
28.18

> <Molecule_ChEMBL_ID>
CHEMBL236853

> <Smiles>
CCC1(CC(O)(Cc2cc(Cl)nc3ccccc23)C(F)(F)F)CCCc2ccccc21

$$$$
CHEMBL398572
  SciTegic08162514323D

 56 59  0  0  1  0            999 V2000
    1.1390    2.6370    2.1600 F   0  0
   -0.0620    2.1390    1.7250 C   0  0
   -0.6310    1.3830    2.7190 F   0  0
   -0.8980    3.1760    1.4040 F   0  0
    0.1660    1.2680    0.4900 C   0  0  3  0  0  0
    0.7230    2.0740   -0.5230 O   0  0
   -1.1270    0.6520   -0.0470 C   0  0
    1.2010    0.2130    0.8850 C   0  0
   -2.0700    1.6870   -0.5080 C   0  0
    1.1860   -1.0100   -0.0450 C   0  0  3  0  0  0
   -3.2110    2.0700    0.2620 C   0  0
   -1.8340    2.3220   -1.7560 C   0  0
    2.4920   -1.7400    0.0140 C   0  0
   -0.0100   -1.8990    0.3670 C   0  0
    0.9710   -0.5220   -1.4840 C   0  0
   -4.0860    3.0860   -0.2500 C   0  0
   -3.4880    1.4650    1.5160 C   0  0
   -2.7300    3.3160   -2.2110 C   0  0
    2.5570   -3.1680    0.0980 C   0  0
    3.7070   -1.0020   -0.0290 C   0  0
    0.0590   -3.2740   -0.2950 C   0  0
    2.2580   -0.5390   -2.3110 C   0  0
   -3.8320    3.6860   -1.4690 N   0  0
   -5.2210    3.4690    0.5080 C   0  0
   -4.6250    1.8610    2.2580 C   0  0
    3.8200   -3.8150    0.1460 C   0  0
    1.3300   -4.0080    0.1450 C   0  0
    4.9570   -1.6560    0.0210 C   0  0
   -5.4880    2.8590    1.7540 C   0  0
    5.0140   -3.0630    0.1090 C   0  0
    1.6780    1.9040   -0.5310 H   0  0
   -1.6070    0.0390    0.7170 H   0  0
   -0.9180   -0.0390   -0.8630 H   0  0
    2.1970    0.6500    0.9300 H   0  0
    1.0650   -0.0900    1.9220 H   0  0
   -0.9780    2.0510   -2.3570 H   0  0
   -0.9510   -1.4100    0.1170 H   0  0
   -0.0190   -2.0350    1.4510 H   0  0
    0.1890   -1.1020   -1.9750 H   0  0
    0.5220    0.4710   -1.4900 H   0  0
   -2.8460    0.6970    1.9260 H   0  0
   -2.5490    3.7990   -3.1620 H   0  0
    3.6880    0.0760   -0.1020 H   0  0
    0.0450   -3.1640   -1.3810 H   0  0
   -0.8200   -3.8630   -0.0350 H   0  0
    2.0410   -0.3590   -3.3630 H   0  0
    2.9530    0.2190   -1.9550 H   0  0
    2.7520   -1.5080   -2.2340 H   0  0
   -5.8970    4.2320    0.1450 H   0  0
   -4.8340    1.3980    3.2110 H   0  0
    3.8750   -4.8910    0.2130 H   0  0
    1.2030   -4.3580    1.1700 H   0  0
    1.4610   -4.9010   -0.4710 H   0  0
    5.8710   -1.0800   -0.0080 H   0  0
   -6.3560    3.1580    2.3260 H   0  0
    5.9710   -3.5650    0.1480 H   0  0
  1  2  1  0
  2  3  1  0
  2  4  1  0
  2  5  1  0
  5  6  1  0
  5  7  1  0
  5  8  1  0
  7  9  1  0
  8 10  1  0
  9 11  2  0
  9 12  1  0
 10 13  1  0
 10 14  1  0
 10 15  1  0
 11 16  1  0
 11 17  1  0
 12 18  2  0
 13 19  2  0
 13 20  1  0
 14 21  1  0
 15 22  1  0
 16 23  2  0
 16 24  1  0
 17 25  2  0
 19 26  1  0
 19 27  1  0
 20 28  2  0
 24 29  2  0
 26 30  2  0
 18 23  1  0
 21 27  1  0
 25 29  1  0
 28 30  1  0
  6 31  1  0
  7 32  1  0
  7 33  1  0
  8 34  1  0
  8 35  1  0
 12 36  1  0
 14 37  1  0
 14 38  1  0
 15 39  1  0
 15 40  1  0
 17 41  1  0
 18 42  1  0
 20 43  1  0
 21 44  1  0
 21 45  1  0
 22 46  1  0
 22 47  1  0
 22 48  1  0
 24 49  1  0
 25 50  1  0
 26 51  1  0
 27 52  1  0
 27 53  1  0
 28 54  1  0
 29 55  1  0
 30 56  1  0
M  END
> <Name>
CHEMBL398572

> <IC50 nM>
15.14

> <Molecule_ChEMBL_ID>
CHEMBL398572

> <Smiles>
CCC1(CC(O)(Cc2ccnc3ccccc23)C(F)(F)F)CCCc2ccccc21

$$$$
CHEMBL235799
  SciTegic08162514323D

 52 55  0  0  1  0            999 V2000
   -1.4510    1.6910   -3.3710 F   0  0
   -0.5720    2.2680   -2.4900 C   0  0
    0.5820    2.6020   -3.1500 F   0  0
   -1.1350    3.3960   -1.9550 F   0  0
   -0.2500    1.2790   -1.3690 C   0  0  3  0  0  0
   -1.4610    0.9040   -0.7520 O   0  0
    0.6680    1.8750   -0.3030 C   0  0
    0.3480    0.0410   -2.0390 C   0  0
   -0.1050    2.2290    0.9510 C   0  0
    0.2030   -1.2250   -1.1800 C   0  0  3  0  0  0
   -1.1130    3.2230    0.9860 N   0  0
    0.0200    1.6760    2.2380 C   0  0
    1.4770   -2.0140   -1.1820 C   0  0
   -0.9940   -2.0310   -1.7320 C   0  0
   -0.1010   -0.8010    0.2640 C   0  0
   -1.5920    3.2660    2.2870 C   0  0
   -0.8870    2.3280    2.9980 C   0  0
    1.4860   -3.4360   -1.3480 C   0  0
    2.7150   -1.3380   -0.9980 C   0  0
   -1.0370   -3.4450   -1.1540 C   0  0
   -2.5920    4.0590    2.8970 C   0  0
   -1.1310    2.1110    4.3770 C   0  0
    2.7190   -4.1390   -1.3400 C   0  0
    0.2330   -4.2130   -1.5410 C   0  0
    3.9360   -2.0490   -0.9940 C   0  0
   -2.8570    3.8650    4.2770 C   0  0
   -2.1290    2.8950    5.0160 C   0  0
    3.9380   -3.4470   -1.1660 C   0  0
   -1.6870    0.0190   -1.0780 H   0  0
    1.1740    2.7640   -0.6820 H   0  0
    1.4690    1.1800   -0.0510 H   0  0
   -0.0880   -0.1110   -3.0250 H   0  0
    1.3910    0.2110   -2.3010 H   0  0
   -1.4200    3.7830    0.2270 H   0  0
    0.7010    0.8950    2.5490 H   0  0
   -1.9300   -1.5120   -1.5220 H   0  0
   -0.9320   -2.1020   -2.8200 H   0  0
   -1.1410   -1.0080    0.5160 H   0  0
    0.5470   -1.3280    0.9650 H   0  0
    0.0660    0.2680    0.3950 H   0  0
    2.7340   -0.2680   -0.8570 H   0  0
   -1.9180   -3.9750   -1.5180 H   0  0
   -1.1330   -3.3970   -0.0680 H   0  0
   -3.1410    4.7930    2.3260 H   0  0
   -0.5760    1.3710    4.9360 H   0  0
    2.7330   -5.2110   -1.4670 H   0  0
    0.2740   -5.1410   -0.9710 H   0  0
    0.1700   -4.4980   -2.5920 H   0  0
    4.8670   -1.5200   -0.8570 H   0  0
   -3.6150    4.4590    4.7680 H   0  0
   -2.3340    2.7500    6.0660 H   0  0
    4.8710   -3.9920   -1.1640 H   0  0
  1  2  1  0
  2  3  1  0
  2  4  1  0
  2  5  1  0
  5  6  1  0
  5  7  1  0
  5  8  1  0
  7  9  1  0
  8 10  1  0
  9 11  1  0
  9 12  2  0
 10 13  1  0
 10 14  1  0
 10 15  1  0
 11 16  1  0
 12 17  1  0
 13 18  2  0
 13 19  1  0
 14 20  1  0
 16 21  1  0
 17 22  1  0
 18 23  1  0
 18 24  1  0
 19 25  2  0
 21 26  2  0
 22 27  2  0
 23 28  2  0
 16 17  2  0
 20 24  1  0
 25 28  1  0
 26 27  1  0
  6 29  1  0
  7 30  1  0
  7 31  1  0
  8 32  1  0
  8 33  1  0
 11 34  1  0
 12 35  1  0
 14 36  1  0
 14 37  1  0
 15 38  1  0
 15 39  1  0
 15 40  1  0
 19 41  1  0
 20 42  1  0
 20 43  1  0
 21 44  1  0
 22 45  1  0
 23 46  1  0
 24 47  1  0
 24 48  1  0
 25 49  1  0
 26 50  1  0
 27 51  1  0
 28 52  1  0
M  END
> <Name>
CHEMBL235799

> <IC50 nM>
22.91

> <Molecule_ChEMBL_ID>
CHEMBL235799

> <Smiles>
CC1(CC(O)(Cc2cc3ccccc3[nH]2)C(F)(F)F)CCCc2ccccc21

$$$$
CHEMBL232832
  SciTegic08162514323D

 40 42  0  0  1  0            999 V2000
    4.7110   -2.4690    3.2600 Cl  0  0
    3.0000   -2.3890    3.3170 C   0  0
    2.2440   -2.6500    2.1580 C   0  0
    2.3480   -2.0600    4.5200 C   0  0
    0.8400   -2.5820    2.2070 C   0  0
    0.9450   -1.9920    4.5650 C   0  0
   -0.0860   -2.9040    0.7870 S   0  0
    0.1890   -2.2540    3.4080 C   0  0
   -1.4590   -2.5040    1.0370 O   0  0
    0.0490   -4.3140    0.4650 O   0  0
    0.4180   -2.0370   -0.6350 N   0  0
    0.2320   -0.5960   -0.6540 C   0  0  2  0  0  0
    0.4120   -0.0540   -2.0740 C   0  0
    1.1620    0.0760    0.3560 C   0  0
   -0.0200    1.3970   -2.1640 C   0  0
   -1.2790    1.8870   -2.2010 C   0  0
    0.8260    2.5220   -2.2300 C   0  0
   -1.3050    3.2560   -2.2850 C   0  0
   -2.4770    1.1330   -2.1600 C   0  0
    0.0160    3.6800   -2.3050 N   0  0
   -2.5220    3.9750   -2.3360 C   0  0
   -3.7150    1.8240   -2.2090 C   0  0
   -3.7380    3.2420   -2.2950 C   0  0
    2.7320   -2.9020    1.2290 H   0  0
    2.9160   -1.8570    5.4180 H   0  0
    0.4450   -1.7400    5.4880 H   0  0
   -0.8890   -2.2010    3.4450 H   0  0
    1.4080   -2.2380   -0.8260 H   0  0
   -0.8070   -0.5120   -0.3380 H   0  0
   -0.1580   -0.6480   -2.7870 H   0  0
    1.4490   -0.1460   -2.3930 H   0  0
    0.9060   -0.2220    1.3730 H   0  0
    2.2010   -0.1850    0.1580 H   0  0
    1.0740    1.1620    0.2950 H   0  0
    1.9080    2.5390   -2.2270 H   0  0
   -2.4610    0.0530   -2.0960 H   0  0
    0.3360    4.6190   -2.3590 H   0  0
   -2.5310    5.0530   -2.4020 H   0  0
   -4.6430    1.2720   -2.1780 H   0  0
   -4.6820    3.7660   -2.3320 H   0  0
  1  2  1  0
  2  3  2  0
  2  4  1  0
  3  5  1  0
  4  6  2  0
  5  7  1  0
  5  8  2  0
  7  9  2  0
  7 10  2  0
  7 11  1  0
 11 12  1  0
 12 13  1  0
 12 14  1  0
 13 15  1  0
 15 16  1  0
 15 17  2  0
 16 18  1  0
 16 19  2  0
 17 20  1  0
 18 21  2  0
 19 22  1  0
 21 23  1  0
  6  8  1  0
 18 20  1  0
 22 23  2  0
  3 24  1  0
  4 25  1  0
  6 26  1  0
  8 27  1  0
 11 28  1  0
 12 29  1  0
 13 30  1  0
 13 31  1  0
 14 32  1  0
 14 33  1  0
 14 34  1  0
 17 35  1  0
 19 36  1  0
 20 37  1  0
 21 38  1  0
 22 39  1  0
 23 40  1  0
M  END
> <Name>
CHEMBL232832

> <IC50 nM>
4100

> <Molecule_ChEMBL_ID>
CHEMBL232832

> <Smiles>
CC(Cc1c[nH]c2ccccc12)NS(=O)(=O)c1cccc(Cl)c1

$$$$
CHEMBL395341
  SciTegic08162514323D

 49 51  0  0  1  0            999 V2000
    0.3570   -0.6680    1.4570 S   0  0
    1.4280   -0.1290    2.2750 O   0  0
   -0.9430   -0.1000    1.7700 O   0  0
    0.7130   -0.1860   -0.1760 N   0  0
    0.2810   -2.3750    1.7190 C   0  0
    0.6680    1.2300   -0.4940 C   0  0  2  0  0  0
    0.6800   -2.9160    2.9550 C   0  0
   -0.1800   -3.2230    0.6930 C   0  0
    0.6820    1.4410   -2.0080 C   0  0
    1.8010    1.9750    0.2150 C   0  0
    0.6170   -4.3050    3.1640 C   0  0
    1.1680   -2.0270    4.0410 C   0  0
   -0.2400   -4.6110    0.9060 C   0  0
   -0.6040   -2.6580   -0.6150 C   0  0
    0.3890    2.8850   -2.3650 C   0  0
    0.1580   -5.1520    2.1430 C   0  0
   -0.8090    3.5140   -2.3570 C   0  0
    1.3220    3.8540   -2.7790 C   0  0
    0.0920   -6.6210    2.3650 C   0  0
   -0.7110    4.8280   -2.7360 C   0  0
   -2.0570    2.9410   -2.0060 C   0  0
    0.6270    5.0660   -3.0100 N   0  0
   -1.8460    5.6700   -2.7950 C   0  0
   -3.2150    3.7620   -2.0550 C   0  0
   -3.1090    5.1250   -2.4470 C   0  0
   -4.4000    3.2560   -1.7300 F   0  0
    1.6370   -0.5490   -0.4470 H   0  0
   -0.2990    1.5120   -0.0760 H   0  0
   -0.0470    0.7910   -2.4940 H   0  0
    1.6450    1.1500   -2.4280 H   0  0
    1.6540    1.9590    1.2950 H   0  0
    2.7640    1.5210   -0.0190 H   0  0
    1.8360    3.0160   -0.1030 H   0  0
    0.9240   -4.7210    4.1130 H   0  0
    0.5610   -1.1350    4.1990 H   0  0
    2.1840   -1.7010    3.8170 H   0  0
    1.1950   -2.5800    4.9810 H   0  0
   -0.5940   -5.2640    0.1210 H   0  0
   -1.2090   -1.7560   -0.5410 H   0  0
   -1.1820   -3.4020   -1.1620 H   0  0
    0.2790   -2.4180   -1.2110 H   0  0
    2.3890    3.7340   -2.9100 H   0  0
   -0.2770   -7.1900    1.5120 H   0  0
   -0.5610   -6.8300    3.2130 H   0  0
    1.0860   -6.9960    2.6090 H   0  0
   -2.1330    1.9060   -1.7070 H   0  0
    1.0270    5.9240   -3.3130 H   0  0
   -1.7580    6.7050   -3.0960 H   0  0
   -3.9900    5.7480   -2.4820 H   0  0
  1  2  2  0
  1  3  2  0
  1  4  1  0
  1  5  1  0
  4  6  1  0
  5  7  2  0
  5  8  1  0
  6  9  1  0
  6 10  1  0
  7 11  1  0
  7 12  1  0
  8 13  2  0
  8 14  1  0
  9 15  1  0
 11 16  2  0
 15 17  1  0
 15 18  2  0
 16 19  1  0
 17 20  1  0
 17 21  2  0
 18 22  1  0
 20 23  2  0
 21 24  1  0
 23 25  1  0
 24 26  1  0
 13 16  1  0
 20 22  1  0
 24 25  2  0
  4 27  1  0
  6 28  1  0
  9 29  1  0
  9 30  1  0
 10 31  1  0
 10 32  1  0
 10 33  1  0
 11 34  1  0
 12 35  1  0
 12 36  1  0
 12 37  1  0
 13 38  1  0
 14 39  1  0
 14 40  1  0
 14 41  1  0
 18 42  1  0
 19 43  1  0
 19 44  1  0
 19 45  1  0
 21 46  1  0
 22 47  1  0
 23 48  1  0
 25 49  1  0
M  END
> <Name>
CHEMBL395341

> <IC50 nM>
65

> <Molecule_ChEMBL_ID>
CHEMBL395341

> <Smiles>
Cc1cc(C)c(S(=O)(=O)NC(C)Cc2c[nH]c3ccc(F)cc23)c(C)c1

$$$$
CHEMBL4164157
  SciTegic08162514323D

 67 71  0  0  1  0            999 V2000
    4.0510   -5.0270   -1.1070 F   0  0
    4.1520   -5.0080    0.2600 C   0  0
    5.4450   -5.2930    0.6170 F   0  0
    3.3220   -5.9670    0.7830 F   0  0
    3.7720   -3.6930    0.7680 C   0  0
    3.4650   -2.6190    1.1780 C   0  0
    3.1080   -1.2810    1.6780 C   0  0  1  0  0  0
    4.2070   -0.4280    1.4120 O   0  0
    1.7910   -0.7280    1.0590 C   0  0  2  0  0  0
    2.8110   -1.3160    3.1950 C   0  0
    0.7290   -1.3710    1.9590 C   0  0  1  0  0  0
    1.4140   -1.1520   -0.3730 C   0  0
    1.7480    0.8050    1.2150 C   0  0
    1.3030   -1.1020    3.3500 C   0  0
   -0.6780   -0.8050    1.6930 C   0  0  1  0  0  0
    0.0140   -0.6620   -0.8180 C   0  0  1  0  0  0
   -1.0920   -0.8650    0.2230 C   0  0
   -1.6720   -1.5250    2.6230 C   0  0
    0.0430    0.7520   -1.2770 C   0  0
   -2.3960   -1.0610   -0.1210 C   0  0
   -3.0920   -1.0230    2.3770 C   0  0
   -0.8070    1.7010   -0.6840 C   0  0
    0.9200    1.1390   -2.3050 C   0  0
   -3.4610   -1.1740    0.9180 C   0  0
   -2.8400   -1.1450   -1.5780 C   0  0
   -0.7810    3.0370   -1.1170 C   0  0
    0.9490    2.4770   -2.7380 C   0  0
   -4.7540   -1.3980    0.6020 C   0  0
   -4.1370   -1.9380   -1.8050 C   0  0
    0.0980    3.4280   -2.1460 C   0  0
   -5.1950   -1.6230   -0.7810 C   0  0
    0.1250    4.7310   -2.5680 N   0  0
   -6.3650   -1.5610   -1.0780 O   0  0
    1.0760    5.1470   -3.6090 C   0  0
   -0.7870    5.7330   -1.9960 C   0  0
    4.2620   -0.3220    0.4490 H   0  0
    3.3380   -0.5470    3.7420 H   0  0
    3.0980   -2.2540    3.6560 H   0  0
    0.7090   -2.4430    1.7990 H   0  0
    2.1840   -0.8240   -1.0760 H   0  0
    1.4100   -2.2420   -0.4470 H   0  0
    2.0780    1.1210    2.2050 H   0  0
    0.7340    1.1800    1.0680 H   0  0
    2.3910    1.2870    0.4790 H   0  0
    1.1020   -0.0820    3.6490 H   0  0
    0.8750   -1.7460    4.1040 H   0  0
   -0.6820    0.2480    1.9770 H   0  0
   -0.1950   -1.2480   -1.7070 H   0  0
   -1.6310   -2.6040    2.4570 H   0  0
   -1.4080   -1.3590    3.6680 H   0  0
   -3.1700    0.0270    2.6580 H   0  0
   -3.7890   -1.5720    3.0120 H   0  0
   -1.4820    1.4080    0.1080 H   0  0
    1.5740    0.4120   -2.7640 H   0  0
   -2.9690   -0.1290   -1.9550 H   0  0
   -2.0880   -1.6130   -2.2050 H   0  0
   -1.4410    3.7540   -0.6480 H   0  0
    1.6290    2.7560   -3.5310 H   0  0
   -5.4980   -1.4180    1.3830 H   0  0
   -4.5210   -1.7460   -2.8090 H   0  0
   -3.9220   -3.0040   -1.7560 H   0  0
    2.1190    4.9220   -3.3930 H   0  0
    0.9920    6.2230   -3.7640 H   0  0
    0.8170    4.6540   -4.5490 H   0  0
   -1.8160    5.4120   -2.1560 H   0  0
   -0.5370    5.8870   -0.9470 H   0  0
   -0.6500    6.6800   -2.5160 H   0  0
  1  2  1  0
  2  3  1  0
  2  4  1  0
  2  5  1  0
  5  6  3  0
  7  6  1  0
  7  8  1  0
  7  9  1  0
  7 10  1  0
  9 11  1  0
  9 12  1  0
  9 13  1  0
 10 14  1  0
 11 15  1  0
 12 16  1  0
 15 17  1  0
 15 18  1  0
 16 19  1  0
 17 20  2  0
 18 21  1  0
 19 22  2  0
 19 23  1  0
 20 24  1  0
 20 25  1  0
 22 26  1  0
 23 27  2  0
 24 28  2  0
 25 29  1  0
 26 30  2  0
 28 31  1  0
 30 32  1  0
 31 33  2  0
 32 34  1  0
 32 35  1  0
 11 14  1  0
 16 17  1  0
 21 24  1  0
 27 30  1  0
 29 31  1  0
  8 36  1  0
 10 37  1  0
 10 38  1  0
 11 39  1  0
 12 40  1  0
 12 41  1  0
 13 42  1  0
 13 43  1  0
 13 44  1  0
 14 45  1  0
 14 46  1  0
 15 47  1  0
 16 48  1  0
 18 49  1  0
 18 50  1  0
 21 51  1  0
 21 52  1  0
 22 53  1  0
 23 54  1  0
 25 55  1  0
 25 56  1  0
 26 57  1  0
 27 58  1  0
 28 59  1  0
 29 60  1  0
 29 61  1  0
 34 62  1  0
 34 63  1  0
 34 64  1  0
 35 65  1  0
 35 66  1  0
 35 67  1  0
M  END
> <Name>
CHEMBL4164157

> <IC50 nM>
11.2

> <Molecule_ChEMBL_ID>
CHEMBL4164157

> <Smiles>
CN(C)c1ccc([C@H]2C[C@@]3(C)[C@@H](CC[C@@]3(O)C#CC(F)(F)F)[C@@H]3CCC4=CC(=O)CCC4=C32)cc1

$$$$
CHEMBL4174812
  SciTegic08162514323D

 74 78  0  0  1  0            999 V2000
    3.2630   -0.0710   -6.3340 O   0  0
    2.6280    0.0110   -5.3080 C   0  0
    1.2960   -0.6030   -5.1940 C   0  0
    3.1650    0.7470   -4.1060 C   0  0
    0.6620   -0.7420   -4.0100 C   0  0
    2.7730    0.0700   -2.7850 C   0  0
    1.3090   -0.3550   -2.7230 C   0  0
   -0.7400   -1.3080   -4.0090 C   0  0
    0.6260   -0.3850   -1.5460 C   0  0
   -1.1220   -1.8710   -2.6430 C   0  0
    1.2620    0.0520   -0.2240 C   0  0  1  0  0  0
   -0.8260   -0.8620   -1.5180 C   0  0  1  0  0  0
    1.2290    1.5380   -0.0930 C   0  0
    0.6840   -0.6340    1.0390 C   0  0
   -1.2130   -1.5490   -0.1990 C   0  0  1  0  0  0
    0.5490    2.3140   -1.0480 C   0  0
    1.8770    2.1640    0.9870 C   0  0
   -0.8500   -0.7100    1.0270 C   0  0  1  0  0  0
   -2.7020   -1.8360    0.0140 C   0  0
    0.5170    3.7140   -0.9250 C   0  0
    1.8470    3.5630    1.1120 C   0  0
   -1.5070   -1.5720    2.1260 C   0  0  2  0  0  0
   -1.5040    0.6810    0.9630 C   0  0
   -2.8960   -1.8600    1.5350 C   0  0
    1.1660    4.3420    0.1560 C   0  0
   -1.6140   -0.8710    3.3510 O   0  0
   -0.7810   -2.8870    2.4250 C   0  0
    1.1350    5.7060    0.2770 N   0  0
   -1.4170   -3.5540    3.6440 C   0  0
    1.6190    6.3690    1.4970 C   0  0
    0.6130    6.5300   -0.8230 C   0  0
   -0.9980   -5.0160    3.8020 C   0  0
   -1.6280   -5.6820    5.0260 C   0  0
    0.8160   -0.9470   -6.0980 H   0  0
    2.7740    1.7660   -4.1230 H   0  0
    4.2500    0.8310   -4.1760 H   0  0
    3.0280    0.7580   -1.9830 H   0  0
    3.3910   -0.8170   -2.6380 H   0  0
   -1.4380   -0.5180   -4.2880 H   0  0
   -0.8350   -2.0900   -4.7640 H   0  0
   -0.5660   -2.7950   -2.4710 H   0  0
   -2.1780   -2.1450   -2.6490 H   0  0
    2.3160   -0.2260   -0.2320 H   0  0
   -1.4620    0.0130   -1.6630 H   0  0
    1.0270   -0.1390    1.9500 H   0  0
    1.0970   -1.6420    1.0920 H   0  0
   -0.6840   -2.4940   -0.1490 H   0  0
    0.0490    1.8380   -1.8790 H   0  0
    2.4010    1.5720    1.7230 H   0  0
   -2.9930   -2.7690   -0.4450 H   0  0
   -3.3090   -1.0570   -0.4260 H   0  0
   -0.0110    4.2940   -1.6690 H   0  0
    2.3510    4.0270    1.9490 H   0  0
   -2.5870    0.6260    1.0820 H   0  0
   -1.2980    1.1600    0.0060 H   0  0
   -1.1150    1.3270    1.7500 H   0  0
   -3.2990   -2.8050    1.8730 H   0  0
   -3.6130   -1.0970    1.8090 H   0  0
   -2.4530   -1.1360    3.7600 H   0  0
    0.2820   -2.7100    2.5920 H   0  0
   -0.8140   -3.5500    1.5610 H   0  0
   -1.1970   -2.9910    4.5510 H   0  0
   -2.5030   -3.4660    3.6090 H   0  0
    1.2860    5.9120    2.4290 H   0  0
    1.2860    7.4070    1.4970 H   0  0
    2.7090    6.3690    1.4970 H   0  0
    0.9880    6.2640   -1.8110 H   0  0
    0.8670    7.5740   -0.6400 H   0  0
   -0.4730    6.4500   -0.8460 H   0  0
   -1.2240   -5.5810    2.8980 H   0  0
    0.0880   -5.1050    3.8310 H   0  0
   -1.3160   -6.7240    5.1010 H   0  0
   -1.3420   -5.1580    5.9390 H   0  0
   -2.7150   -5.6630    4.9580 H   0  0
  1  2  2  0
  2  3  1  0
  2  4  1  0
  3  5  2  0
  4  6  1  0
  5  7  1  0
  5  8  1  0
  7  9  2  0
  8 10  1  0
  9 11  1  0
  9 12  1  0
 11 13  1  0
 11 14  1  0
 12 15  1  0
 13 16  2  0
 13 17  1  0
 14 18  1  0
 15 19  1  0
 16 20  1  0
 17 21  2  0
 18 22  1  0
 18 23  1  0
 19 24  1  0
 20 25  2  0
 22 26  1  0
 22 27  1  0
 25 28  1  0
 27 29  1  0
 28 30  1  0
 28 31  1  0
 29 32  1  0
 32 33  1  0
  6  7  1  0
 12 10  1  0
 15 18  1  0
 21 25  1  0
 22 24  1  0
  3 34  1  0
  4 35  1  0
  4 36  1  0
  6 37  1  0
  6 38  1  0
  8 39  1  0
  8 40  1  0
 10 41  1  0
 10 42  1  0
 11 43  1  0
 12 44  1  0
 14 45  1  0
 14 46  1  0
 15 47  1  0
 16 48  1  0
 17 49  1  0
 19 50  1  0
 19 51  1  0
 20 52  1  0
 21 53  1  0
 23 54  1  0
 23 55  1  0
 23 56  1  0
 24 57  1  0
 24 58  1  0
 26 59  1  0
 27 60  1  0
 27 61  1  0
 29 62  1  0
 29 63  1  0
 30 64  1  0
 30 65  1  0
 30 66  1  0
 31 67  1  0
 31 68  1  0
 31 69  1  0
 32 70  1  0
 32 71  1  0
 33 72  1  0
 33 73  1  0
 33 74  1  0
M  END
> <Name>
CHEMBL4174812

> <IC50 nM>
32

> <Molecule_ChEMBL_ID>
CHEMBL4174812

> <Smiles>
CCCC[C@]1(O)CC[C@H]2[C@@H]3CCC4=CC(=O)CCC4=C3[C@@H](c3ccc(N(C)C)cc3)C[C@@]21C

$$$$
CHEMBL4087723
  SciTegic08162514323D

 34 36  0  0  0  0            999 V2000
   -7.8460   -1.4470    0.7290 Br  0  0
   -6.0660   -0.8380    0.6210 C   0  0
   -5.0860   -1.3630    1.4840 C   0  0
   -5.7110    0.1440   -0.3240 C   0  0
   -3.7580   -0.9060    1.4020 C   0  0
   -4.3850    0.6000   -0.4040 C   0  0
   -3.4060    0.0740    0.4590 C   0  0
   -2.0020    0.5570    0.3750 C   0  0
   -1.1480   -0.5290    0.0430 O   0  0
    0.1640   -0.2830   -0.0760 C   0  0
    1.0510   -1.3340   -0.4040 C   0  0
    0.6580    1.0270    0.1230 C   0  0
    2.4380   -1.0780   -0.5350 C   0  0
    2.0410    1.2930   -0.0040 C   0  0
    3.2810   -2.0860   -0.8480 O   0  0
    2.9300    0.2400   -0.3340 C   0  0
    4.6120   -1.9120   -0.9880 C   0  0
    4.3950    0.4800   -0.4800 C   0  0
    5.3560   -2.8220   -1.2700 O   0  0
    5.1900   -0.5650   -0.7950 C   0  0
    4.9980    1.8500   -0.2870 C   0  0
    4.4360    2.7500   -1.1540 F   0  0
    6.3540    1.8100   -0.4860 F   0  0
    4.7380    2.2340    1.0040 F   0  0
   -5.3380   -2.1170    2.2170 H   0  0
   -6.4510    0.5570   -0.9960 H   0  0
   -3.0120   -1.3150    2.0680 H   0  0
   -4.1210    1.3530   -1.1310 H   0  0
   -1.9240    1.3050   -0.4140 H   0  0
   -1.6950    0.9510    1.3420 H   0  0
    0.6720   -2.3340   -0.5570 H   0  0
   -0.0210    1.8280    0.3750 H   0  0
    2.4020    2.2990    0.1520 H   0  0
    6.2540   -0.4200   -0.9060 H   0  0
  1  2  1  0
  2  3  2  0
  2  4  1  0
  3  5  1  0
  4  6  2  0
  5  7  2  0
  7  8  1  0
  8  9  1  0
  9 10  1  0
 10 11  2  0
 10 12  1  0
 11 13  1  0
 12 14  2  0
 13 15  1  0
 13 16  2  0
 15 17  1  0
 16 18  1  0
 17 19  2  0
 17 20  1  0
 18 21  1  0
 21 22  1  0
 21 23  1  0
 21 24  1  0
  6  7  1  0
 14 16  1  0
 18 20  2  0
  3 25  1  0
  4 26  1  0
  5 27  1  0
  6 28  1  0
  8 29  1  0
  8 30  1  0
 11 31  1  0
 12 32  1  0
 14 33  1  0
 20 34  1  0
M  END
> <Name>
CHEMBL4087723

> <IC50 nM>
10000

> <Molecule_ChEMBL_ID>
CHEMBL4087723

> <Smiles>
O=c1cc(C(F)(F)F)c2ccc(OCc3ccc(Br)cc3)cc2o1

$$$$
CHEMBL4161483
  SciTegic08162514323D

 79 83  0  0  1  0            999 V2000
   -6.5960   -2.3160    0.4370 O   0  0
   -5.3990   -2.1620    0.3790 C   0  0
   -4.5630   -2.2730    1.5820 C   0  0
   -4.7050   -1.8540   -0.9220 C   0  0
   -3.2870   -1.8320    1.6210 C   0  0
   -3.5310   -0.8770   -0.7580 C   0  0
   -2.6560   -1.1290    0.4670 C   0  0
   -2.4840   -2.0550    2.8810 C   0  0
   -1.3590   -0.7130    0.5190 C   0  0
   -1.0040   -2.2250    2.5510 C   0  0
   -0.7090    0.1050   -0.5960 C   0  0  1  0  0  0
   -0.4880   -1.0250    1.7380 C   0  0  1  0  0  0
   -0.9820    1.5570   -0.3990 C   0  0
    0.7990   -0.1760   -0.7970 C   0  0
    0.9710   -1.3240    1.3550 C   0  0  1  0  0  0
   -0.5100    2.4940   -1.3340 C   0  0
   -1.7110    1.9900    0.7230 C   0  0
    1.5960   -0.2050    0.5160 C   0  0  1  0  0  0
    1.9770   -1.4800    2.5020 C   0  0
   -0.7640    3.8650   -1.1520 C   0  0
   -1.9670    3.3590    0.9080 C   0  0
    3.0800   -0.6620    0.4610 C   0  0  2  0  0  0
    1.5040    1.1370    1.2620 C   0  0
    3.3380   -1.0610    1.9280 C   0  0
   -1.4980    4.3030   -0.0250 C   0  0
   -0.2480    4.8300   -2.1660 C   0  0
    3.9410    0.3980    0.0760 O   0  0
    3.3180   -1.7970   -0.4470 C   0  0
   -1.7620    5.6350    0.1780 N   0  0
    3.5180   -2.7130   -1.1800 C   0  0
   -3.1040    6.0610    0.6000 C   0  0
   -0.7190    6.6510   -0.0180 C   0  0
    3.7600   -3.8420   -2.0740 C   0  0
    3.0470   -5.0760   -1.5200 C   0  0
    3.2130   -3.5000   -3.4610 C   0  0
    5.2660   -4.0980   -2.1520 C   0  0
   -4.9960   -2.7300    2.4610 H   0  0
   -5.4240   -1.4590   -1.6430 H   0  0
   -4.3380   -2.7910   -1.3400 H   0  0
   -2.9610   -0.9450   -1.6800 H   0  0
   -3.9140    0.1450   -0.7050 H   0  0
   -2.6210   -1.2010    3.5470 H   0  0
   -2.8420   -2.9360    3.4160 H   0  0
   -0.4380   -2.3320    3.4770 H   0  0
   -0.8610   -3.1480    1.9900 H   0  0
   -1.1490   -0.1390   -1.5570 H   0  0
   -0.5120   -0.1500    2.3870 H   0  0
    0.8870   -1.1390   -1.3050 H   0  0
    1.2400    0.5530   -1.4830 H   0  0
    0.9780   -2.2440    0.7830 H   0  0
    0.0510    2.1580   -2.1950 H   0  0
   -2.0760    1.2730    1.4450 H   0  0
    1.9900   -2.4960    2.8710 H   0  0
    1.7150   -0.8380    3.3320 H   0  0
   -2.5290    3.6700    1.7770 H   0  0
    0.4800    1.3650    1.5600 H   0  0
    1.8570    1.9530    0.6310 H   0  0
    2.1170    1.1210    2.1620 H   0  0
    3.7090   -0.2190    2.5020 H   0  0
    4.0760   -1.8460    2.0350 H   0  0
   -0.9770    5.5740   -2.4900 H   0  0
    0.0860    4.2850   -3.0490 H   0  0
    0.6130    5.3590   -1.7580 H   0  0
    3.5920    0.7640   -0.7520 H   0  0
   -3.8560    5.2740    0.5980 H   0  0
   -3.4510    6.8560   -0.0630 H   0  0
   -3.0510    6.4690    1.6090 H   0  0
    0.2560    6.2090    0.1890 H   0  0
   -0.8050    7.0650   -1.0240 H   0  0
   -0.8730    7.4650    0.6910 H   0  0
    3.4000   -5.3360   -0.5220 H   0  0
    3.2090   -5.9410   -2.1640 H   0  0
    1.9730   -4.9040   -1.4570 H   0  0
    3.6890   -2.6130   -3.8790 H   0  0
    2.1410   -3.3140   -3.4180 H   0  0
    3.3810   -4.3260   -4.1540 H   0  0
    5.8050   -3.2270   -2.5260 H   0  0
    5.4820   -4.9360   -2.8150 H   0  0
    5.6660   -4.3380   -1.1660 H   0  0
  1  2  2  0
  2  3  1  0
  2  4  1  0
  3  5  2  0
  4  6  1  0
  5  7  1  0
  5  8  1  0
  7  9  2  0
  8 10  1  0
  9 11  1  0
  9 12  1  0
 11 13  1  0
 11 14  1  0
 12 15  1  0
 13 16  2  0
 13 17  1  0
 14 18  1  0
 15 19  1  0
 16 20  1  0
 17 21  2  0
 18 22  1  0
 18 23  1  0
 19 24  1  0
 20 25  2  0
 20 26  1  0
 22 27  1  0
 22 28  1  0
 25 29  1  0
 28 30  3  0
 29 31  1  0
 29 32  1  0
 30 33  1  0
 33 34  1  0
 33 35  1  0
 33 36  1  0
  6  7  1  0
 12 10  1  0
 15 18  1  0
 21 25  1  0
 22 24  1  0
  3 37  1  0
  4 38  1  0
  4 39  1  0
  6 40  1  0
  6 41  1  0
  8 42  1  0
  8 43  1  0
 10 44  1  0
 10 45  1  0
 11 46  1  0
 12 47  1  0
 14 48  1  0
 14 49  1  0
 15 50  1  0
 16 51  1  0
 17 52  1  0
 19 53  1  0
 19 54  1  0
 21 55  1  0
 23 56  1  0
 23 57  1  0
 23 58  1  0
 24 59  1  0
 24 60  1  0
 26 61  1  0
 26 62  1  0
 26 63  1  0
 27 64  1  0
 31 65  1  0
 31 66  1  0
 31 67  1  0
 32 68  1  0
 32 69  1  0
 32 70  1  0
 34 71  1  0
 34 72  1  0
 34 73  1  0
 35 74  1  0
 35 75  1  0
 35 76  1  0
 36 77  1  0
 36 78  1  0
 36 79  1  0
M  END
> <Name>
CHEMBL4161483

> <IC50 nM>
28

> <Molecule_ChEMBL_ID>
CHEMBL4161483

> <Smiles>
Cc1cc([C@H]2C[C@@]3(C)[C@@H](CC[C@@]3(O)C#CC(C)(C)C)[C@@H]3CCC4=CC(=O)CCC4=C32)ccc1N(C)C

$$$$
CHEMBL4169408
  SciTegic08162514323D

 80 84  0  0  1  0            999 V2000
   -6.4360   -2.2520    0.1990 O   0  0
   -5.2400   -2.0980    0.1410 C   0  0
   -4.4020   -2.2110    1.3440 C   0  0
   -4.5470   -1.7910   -1.1600 C   0  0
   -3.1290   -1.7700    1.3830 C   0  0
   -3.3730   -0.8130   -0.9960 C   0  0
   -2.4960   -1.0660    0.2280 C   0  0
   -2.3240   -1.9900    2.6450 C   0  0
   -1.1990   -0.6480    0.2810 C   0  0
   -0.8440   -2.1600    2.3130 C   0  0
   -0.5510    0.1700   -0.8320 C   0  0  1  0  0  0
   -0.3300   -0.9610    1.5000 C   0  0  1  0  0  0
   -0.8220    1.6210   -0.6370 C   0  0
    0.9590   -0.1110   -1.0350 C   0  0
    1.1310   -1.2600    1.1170 C   0  0  1  0  0  0
   -1.5250    2.0570    0.5000 C   0  0
   -0.3790    2.5550   -1.5860 C   0  0
    1.7560   -0.1410    0.2770 C   0  0  1  0  0  0
    2.1350   -1.4160    2.2640 C   0  0
   -1.7870    3.4260    0.6930 C   0  0
   -0.6350    3.9240   -1.4000 C   0  0
    3.2400   -0.6000    0.2230 C   0  0  2  0  0  0
    1.6620    1.2010    1.0230 C   0  0
    3.4960   -0.9960    1.6890 C   0  0
   -2.4470    3.8110    1.7700 O   0  0
   -1.3400    4.3630   -0.2620 C   0  0
    4.1000    0.4630   -0.1620 O   0  0
    3.4770   -1.7320   -0.6860 C   0  0
   -3.0590    2.8090    2.5700 C   0  0
   -1.5820    5.7030   -0.0960 N   0  0
    3.6760   -2.6500   -1.4180 C   0  0
   -1.6150    6.6150   -1.2480 C   0  0
   -1.8110    6.2480    1.2500 C   0  0
    3.9180   -3.7770   -2.3130 C   0  0
    3.2050   -5.0140   -1.7580 C   0  0
    3.3730   -3.4380   -3.6990 C   0  0
    5.4240   -4.0330   -2.3890 C   0  0
   -4.8360   -2.6660    2.2230 H   0  0
   -5.2640   -1.3950   -1.8810 H   0  0
   -4.1800   -2.7290   -1.5780 H   0  0
   -2.8010   -0.8810   -1.9180 H   0  0
   -3.7540    0.2090   -0.9430 H   0  0
   -2.4630   -1.1390    3.3090 H   0  0
   -2.6840   -2.8710    3.1780 H   0  0
   -0.2770   -2.2680    3.2380 H   0  0
   -0.7030   -3.0840    1.7520 H   0  0
   -0.9880   -0.0740   -1.7950 H   0  0
   -0.3510   -0.0860    2.1480 H   0  0
    1.0450   -1.0740   -1.5430 H   0  0
    1.3990    0.6150   -1.7210 H   0  0
    1.1370   -2.1800    0.5470 H   0  0
   -1.8670    1.3400    1.2320 H   0  0
    0.1620    2.2270   -2.4630 H   0  0
    2.1490   -2.4320    2.6350 H   0  0
    1.8750   -0.7730    3.0940 H   0  0
   -0.2850    4.6270   -2.1430 H   0  0
    0.6390    1.4320    1.3200 H   0  0
    2.0200    2.0180    0.3950 H   0  0
    2.2750    1.1840    1.9240 H   0  0
    3.8670   -0.1560    2.2640 H   0  0
    4.2360   -1.7810    1.7970 H   0  0
    3.8260    0.7440   -1.0490 H   0  0
   -3.5820    3.2990    3.3910 H   0  0
   -3.6640    2.1760    1.9220 H   0  0
   -2.2710    2.1890    3.0020 H   0  0
   -1.9410    6.1580   -2.1840 H   0  0
   -0.6210    7.0270   -1.4080 H   0  0
   -2.2890    7.4430   -1.0290 H   0  0
   -1.2010    5.7990    2.0350 H   0  0
   -2.8570    6.1070    1.5200 H   0  0
   -1.6090    7.3180    1.2420 H   0  0
    3.5670   -5.2750   -0.7640 H   0  0
    3.3610   -5.8750   -2.4060 H   0  0
    2.1330   -4.8380   -1.6880 H   0  0
    3.8540   -2.5550   -4.1190 H   0  0
    2.3010   -3.2440   -3.6560 H   0  0
    3.5330   -4.2640   -4.3910 H   0  0
    5.9630   -3.1660   -2.7720 H   0  0
    5.6410   -4.8770   -3.0450 H   0  0
    5.8260   -4.2660   -1.4040 H   0  0
  1  2  2  0
  2  3  1  0
  2  4  1  0
  3  5  2  0
  4  6  1  0
  5  7  1  0
  5  8  1  0
  7  9  2  0
  8 10  1  0
  9 11  1  0
  9 12  1  0
 11 13  1  0
 11 14  1  0
 12 15  1  0
 13 16  2  0
 13 17  1  0
 14 18  1  0
 15 19  1  0
 16 20  1  0
 17 21  2  0
 18 22  1  0
 18 23  1  0
 19 24  1  0
 20 25  1  0
 20 26  2  0
 22 27  1  0
 22 28  1  0
 25 29  1  0
 26 30  1  0
 28 31  3  0
 30 32  1  0
 30 33  1  0
 31 34  1  0
 34 35  1  0
 34 36  1  0
 34 37  1  0
  6  7  1  0
 12 10  1  0
 15 18  1  0
 21 26  1  0
 22 24  1  0
  3 38  1  0
  4 39  1  0
  4 40  1  0
  6 41  1  0
  6 42  1  0
  8 43  1  0
  8 44  1  0
 10 45  1  0
 10 46  1  0
 11 47  1  0
 12 48  1  0
 14 49  1  0
 14 50  1  0
 15 51  1  0
 16 52  1  0
 17 53  1  0
 19 54  1  0
 19 55  1  0
 21 56  1  0
 23 57  1  0
 23 58  1  0
 23 59  1  0
 24 60  1  0
 24 61  1  0
 27 62  1  0
 29 63  1  0
 29 64  1  0
 29 65  1  0
 32 66  1  0
 32 67  1  0
 32 68  1  0
 33 69  1  0
 33 70  1  0
 33 71  1  0
 35 72  1  0
 35 73  1  0
 35 74  1  0
 36 75  1  0
 36 76  1  0
 36 77  1  0
 37 78  1  0
 37 79  1  0
 37 80  1  0
M  END
> <Name>
CHEMBL4169408

> <IC50 nM>
48

> <Molecule_ChEMBL_ID>
CHEMBL4169408

> <Smiles>
COc1cc([C@H]2C[C@@]3(C)[C@@H](CC[C@@]3(O)C#CC(C)(C)C)[C@@H]3CCC4=CC(=O)CCC4=C32)ccc1N(C)C

$$$$
CHEMBL4778550
  SciTegic08162514323D

 54 57  0  0  0  0            999 V2000
    2.4610   -0.4240    2.6110 S   0  0
    3.1640    0.0740    3.7810 O   0  0
    3.1890   -0.2110    1.3730 O   0  0
    2.2730   -2.0290    2.7970 N   0  0
    0.9470    0.3960    2.4980 C   0  0
    3.3420   -2.8670    2.9260 C   0  0
    0.8750   -2.5370    2.8200 C   0  0
    0.4730    0.8180    1.2460 C   0  0
    0.1930    0.6410    3.6600 C   0  0
    3.1560   -4.2810    3.0510 C   0  0
    4.6660   -2.3480    2.9380 C   0  0
    0.7810   -3.9850    2.3180 C   0  0
   -0.7640    1.4860    1.1520 C   0  0
   -1.0390    1.3090    3.5660 C   0  0
    4.2810   -5.1350    3.1880 C   0  0
    1.7950   -4.8790    3.0430 C   0  0
    5.7790   -3.2070    3.0720 C   0  0
   -1.2720    1.9350   -0.1780 C   0  0
   -1.5180    1.7300    2.3140 C   0  0
    5.5880   -4.6000    3.1970 C   0  0
   -0.5140    2.1390   -1.0980 O   0  0
   -2.6150    2.1150   -0.3400 N   0  0
   -3.1470    2.5590   -1.6390 C   0  0
   -2.1920    2.8770   -3.0060 S   0  0
   -4.5080    2.7730   -1.9120 C   0  0
   -3.5280    3.2970   -3.9710 C   0  0
   -4.7250    3.1930   -3.2400 C   0  0
   -3.4280    3.7070   -5.3630 C   0  0
   -4.4260    3.9900   -5.9850 O   0  0
   -2.2010    3.7420   -5.8750 O   0  0
   -2.2010    4.1020   -7.2500 C   0  0
   -2.6860    2.9180   -8.0880 C   0  0
    0.2460   -1.8890    2.2090 H   0  0
    0.5020   -2.4690    3.8440 H   0  0
    1.0580    0.6250    0.3590 H   0  0
    0.5600    0.3160    4.6230 H   0  0
    4.8570   -1.2890    2.8460 H   0  0
    0.9710   -4.0120    1.2440 H   0  0
   -0.2310   -4.3670    2.4590 H   0  0
   -1.6190    1.4960    4.4570 H   0  0
    4.1420   -6.2010    3.2830 H   0  0
    1.8080   -5.8630    2.5720 H   0  0
    1.4780   -5.0280    4.0760 H   0  0
    6.7790   -2.7990    3.0800 H   0  0
   -2.4670    2.2440    2.2520 H   0  0
    6.4390   -5.2560    3.3010 H   0  0
   -3.2420    1.9490    0.4220 H   0  0
   -5.3030    2.6330   -1.1910 H   0  0
   -5.7010    3.4120   -3.6500 H   0  0
   -2.8600    4.9610   -7.3790 H   0  0
   -1.1840    4.3810   -7.5270 H   0  0
   -2.6230    3.1480   -9.1510 H   0  0
   -2.0880    2.0290   -7.8810 H   0  0
   -3.7250    2.6820   -7.8560 H   0  0
  1  2  2  0
  1  3  2  0
  1  4  1  0
  1  5  1  0
  4  6  1  0
  4  7  1  0
  5  8  2  0
  5  9  1  0
  6 10  2  0
  6 11  1  0
  7 12  1  0
  8 13  1  0
  9 14  2  0
 10 15  1  0
 10 16  1  0
 11 17  2  0
 13 18  1  0
 13 19  2  0
 15 20  2  0
 18 21  2  0
 18 22  1  0
 22 23  1  0
 23 24  1  0
 23 25  2  0
 24 26  1  0
 25 27  1  0
 26 28  1  0
 28 29  2  0
 28 30  1  0
 30 31  1  0
 31 32  1  0
 12 16  1  0
 14 19  1  0
 17 20  1  0
 26 27  2  0
  7 33  1  0
  7 34  1  0
  8 35  1  0
  9 36  1  0
 11 37  1  0
 12 38  1  0
 12 39  1  0
 14 40  1  0
 15 41  1  0
 16 42  1  0
 16 43  1  0
 17 44  1  0
 19 45  1  0
 20 46  1  0
 22 47  1  0
 25 48  1  0
 27 49  1  0
 31 50  1  0
 31 51  1  0
 32 52  1  0
 32 53  1  0
 32 54  1  0
M  END
> <Name>
CHEMBL4778550

> <IC50 nM>
2500

> <Molecule_ChEMBL_ID>
CHEMBL4778550

> <Smiles>
CCOC(=O)c1ccc(NC(=O)c2cccc(S(=O)(=O)N3CCCc4ccccc43)c2)s1

$$$$
CHEMBL3963321
  SciTegic08162514323D

 59 62  0  0  1  0            999 V2000
   -1.8240   -1.8180    0.6430 S   0  0
   -1.4840   -3.0180   -0.1040 O   0  0
   -0.7600   -0.8300    0.6580 O   0  0
   -3.1480   -1.0820   -0.2110 N   0  0
   -2.1680   -2.2710    2.2750 C   0  0
   -2.9630   -0.7690   -1.6190 C   0  0  2  0  0  0
   -1.5980   -3.4410    2.8140 C   0  0
   -3.0160   -1.4730    3.0640 C   0  0
   -1.8070    0.2130   -1.8010 C   0  0
   -4.2690   -0.2640   -2.2330 C   0  0
   -1.8770   -3.8090    4.1430 C   0  0
   -0.6990   -4.2890    1.9860 C   0  0
   -3.2950   -1.8440    4.3910 C   0  0
   -3.6230   -0.2380    2.5000 C   0  0
   -0.5840   -0.5060   -1.8750 O   0  0
   -2.7250   -3.0120    4.9320 C   0  0
    0.5530    0.1970   -1.9770 C   0  0
   -3.0190   -3.4000    6.3340 C   0  0
    1.8030   -0.4780   -2.0060 C   0  0
    0.5040    1.6150   -2.0550 C   0  0
    2.9980    0.2770   -2.1130 C   0  0
    1.7010    2.3650   -2.1600 C   0  0
    2.9240    1.6540   -2.1880 C   0  0
    4.2520   -0.3120   -2.1490 C   0  0
    4.2310    2.0100   -2.2770 N   0  0
    4.9810    0.8540   -2.2540 N   0  0
    4.7290    3.2700   -2.3750 C   0  0
    4.1970    4.3030   -1.5800 C   0  0
    5.7800    3.5470   -3.2720 C   0  0
    4.7130    5.6080   -1.6820 C   0  0
    6.2950    4.8520   -3.3710 C   0  0
    5.7620    5.8810   -2.5760 C   0  0
    6.2480    7.1150   -2.6720 F   0  0
   -3.9880   -1.6740   -0.1210 H   0  0
   -2.7050   -1.7500   -2.0200 H   0  0
   -1.7480    0.9010   -0.9590 H   0  0
   -1.9260    0.7790   -2.7250 H   0  0
   -4.1540   -0.1000   -3.3030 H   0  0
   -5.0760   -0.9780   -2.0670 H   0  0
   -4.5660    0.6840   -1.7790 H   0  0
   -1.4390   -4.7050    4.5570 H   0  0
   -1.2090   -4.8520    1.2050 H   0  0
   -0.1820   -5.0040    2.6290 H   0  0
    0.0550   -3.6640    1.5100 H   0  0
   -3.9450   -1.2300    4.9980 H   0  0
   -4.0020    0.4570    3.2500 H   0  0
   -4.4510   -0.5060    1.8460 H   0  0
   -2.8810    0.2910    1.9000 H   0  0
   -3.6930   -2.7230    6.8570 H   0  0
   -2.0900   -3.4490    6.9000 H   0  0
   -3.4710   -4.3930    6.3500 H   0  0
    1.8280   -1.5590   -1.9470 H   0  0
   -0.4470    2.1250   -2.0310 H   0  0
    1.6780    3.4440   -2.2210 H   0  0
    4.6040   -1.3360   -2.1110 H   0  0
    3.3910    4.1110   -0.8870 H   0  0
    6.2030    2.7680   -3.8910 H   0  0
    4.3010    6.3950   -1.0700 H   0  0
    7.1000    5.0590   -4.0610 H   0  0
  1  2  2  0
  1  3  2  0
  1  4  1  0
  1  5  1  0
  4  6  1  0
  5  7  2  0
  5  8  1  0
  6  9  1  0
  6 10  1  0
  7 11  1  0
  7 12  1  0
  8 13  2  0
  8 14  1  0
  9 15  1  0
 11 16  2  0
 15 17  1  0
 16 18  1  0
 17 19  2  0
 17 20  1  0
 19 21  1  0
 20 22  2  0
 21 23  2  0
 21 24  1  0
 23 25  1  0
 24 26  2  0
 25 27  1  0
 27 28  2  0
 27 29  1  0
 28 30  1  0
 29 31  2  0
 30 32  2  0
 32 33  1  0
 13 16  1  0
 22 23  1  0
 25 26  1  0
 31 32  1  0
  4 34  1  0
  6 35  1  0
  9 36  1  0
  9 37  1  0
 10 38  1  0
 10 39  1  0
 10 40  1  0
 11 41  1  0
 12 42  1  0
 12 43  1  0
 12 44  1  0
 13 45  1  0
 14 46  1  0
 14 47  1  0
 14 48  1  0
 18 49  1  0
 18 50  1  0
 18 51  1  0
 19 52  1  0
 20 53  1  0
 22 54  1  0
 24 55  1  0
 28 56  1  0
 29 57  1  0
 30 58  1  0
 31 59  1  0
M  END
> <Name>
CHEMBL3963321

> <IC50 nM>
98

> <Molecule_ChEMBL_ID>
CHEMBL3963321

> <Smiles>
Cc1cc(C)c(S(=O)(=O)N[C@@H](C)COc2ccc3c(cnn3-c3ccc(F)cc3)c2)c(C)c1

$$$$
CHEMBL3901719
  SciTegic08162514323D

 65 68  0  0  1  0            999 V2000
    5.8540    7.8910   -0.4430 F   0  0
    5.3650    6.6560   -0.3480 C   0  0
    5.9880    5.7170    0.4940 C   0  0
    4.2290    6.2910   -1.0880 C   0  0
    5.4750    4.4140    0.5960 C   0  0
    3.7130    4.9860   -0.9880 C   0  0
    4.3340    4.0450   -0.1460 C   0  0
    3.8360    2.7830   -0.0490 N   0  0
    4.5860    1.6290   -0.0250 N   0  0
    2.5290    2.4300    0.0430 C   0  0
    3.8570    0.4630    0.0800 C   0  0
    2.6040    1.0510    0.1150 C   0  0
    1.3070    3.1410    0.0680 C   0  0
    1.4060    0.2950    0.2230 C   0  0
    0.1090    2.3910    0.1760 C   0  0
    0.1580    0.9730    0.2540 C   0  0
   -0.9790    0.2700    0.3550 O   0  0
   -0.9490   -1.1040   -0.0100 C   0  0  2  0  0  0
   -0.4360   -1.2360   -1.3980 C   0  0
   -2.3500   -1.6970    0.1330 C   0  0  1  0  0  0
    0.3610   -2.3400   -1.7500 C   0  0
   -0.7460   -0.2600   -2.3590 C   0  0
   -2.7520   -1.7700    1.5450 N   0  0
   -3.3950   -0.9490   -0.6970 C   0  0
    0.8500   -2.4690   -3.0630 C   0  0
   -0.2600   -0.3870   -3.6720 C   0  0
   -3.7810   -2.5900    1.9060 C   0  0
    1.5980   -3.5040   -3.3930 O   0  0
    0.5370   -1.4900   -4.0220 C   0  0
   -4.3590   -3.2520    1.0740 O   0  0
   -4.1800   -2.6520    3.3570 C   0  0
    2.0700   -3.5840   -4.7310 C   0  0
   -5.0040   -1.3690    3.2520 C   0  0
   -2.9820   -2.5100    4.2970 C   0  0
   -5.0350   -3.8790    3.6760 C   0  0
    6.8610    5.9940    1.0640 H   0  0
    3.7480    7.0080   -1.7360 H   0  0
    5.9650    3.7050    1.2480 H   0  0
    2.8380    4.7250   -1.5660 H   0  0
    4.2090   -0.5610    0.1190 H   0  0
    1.2830    4.2190    0.0100 H   0  0
    1.4340   -0.7830    0.2830 H   0  0
   -0.8420    2.9000    0.1970 H   0  0
   -0.2460   -1.6150    0.6460 H   0  0
   -2.3460   -2.7580   -0.1190 H   0  0
    0.6020   -3.0920   -1.0140 H   0  0
   -1.3570    0.5920   -2.0960 H   0  0
   -2.2750   -1.2250    2.2340 H   0  0
   -4.3990   -1.3420   -0.5330 H   0  0
   -3.1740   -1.0330   -1.7620 H   0  0
   -3.4040    0.1090   -0.4410 H   0  0
   -0.4980    0.3630   -4.4100 H   0  0
    0.9100   -1.5840   -5.0310 H   0  0
    1.2110   -3.6860   -5.3910 H   0  0
    2.7210   -2.7290   -4.9140 H   0  0
    2.6740   -4.4860   -4.8240 H   0  0
   -4.3850   -0.5080    3.0060 H   0  0
   -5.5120   -1.1580    4.1930 H   0  0
   -5.7660   -1.4630    2.4770 H   0  0
   -2.1760   -3.1930    4.0350 H   0  0
   -3.2730   -2.7150    5.3260 H   0  0
   -2.5840   -1.4940    4.2620 H   0  0
   -4.4730   -4.8070    3.5680 H   0  0
   -5.8950   -3.9340    3.0080 H   0  0
   -5.4100   -3.8320    4.6970 H   0  0
  1  2  1  0
  2  3  2  0
  2  4  1  0
  3  5  1  0
  4  6  2  0
  5  7  2  0
  7  8  1  0
  8  9  1  0
  8 10  1  0
  9 11  2  0
 10 12  1  0
 10 13  2  0
 12 14  2  0
 13 15  1  0
 14 16  1  0
 16 17  1  0
 18 17  1  0
 18 19  1  0
 18 20  1  0
 19 21  2  0
 19 22  1  0
 20 23  1  0
 20 24  1  0
 21 25  1  0
 22 26  2  0
 23 27  1  0
 25 28  1  0
 25 29  2  0
 27 30  2  0
 27 31  1  0
 28 32  1  0
 31 33  1  0
 31 34  1  0
 31 35  1  0
  6  7  1  0
 11 12  1  0
 15 16  2  0
 26 29  1  0
  3 36  1  0
  4 37  1  0
  5 38  1  0
  6 39  1  0
 11 40  1  0
 13 41  1  0
 14 42  1  0
 15 43  1  0
 18 44  1  0
 20 45  1  0
 21 46  1  0
 22 47  1  0
 23 48  1  0
 24 49  1  0
 24 50  1  0
 24 51  1  0
 26 52  1  0
 29 53  1  0
 32 54  1  0
 32 55  1  0
 32 56  1  0
 33 57  1  0
 33 58  1  0
 33 59  1  0
 34 60  1  0
 34 61  1  0
 34 62  1  0
 35 63  1  0
 35 64  1  0
 35 65  1  0
M  END
> <Name>
CHEMBL3901719

> <IC50 nM>
0.08

> <Molecule_ChEMBL_ID>
CHEMBL3901719

> <Smiles>
COc1cccc([C@@H](Oc2ccc3c(cnn3-c3ccc(F)cc3)c2)[C@H](C)NC(=O)C(C)(C)C)c1

$$$$
CHEMBL4170986
  SciTegic08162514323D

 71 75  0  0  1  0            999 V2000
   -6.7400   -1.6250    0.3570 O   0  0
   -5.5430   -1.4710    0.2990 C   0  0
   -4.7070   -1.5820    1.5020 C   0  0
   -4.8500   -1.1620   -1.0040 C   0  0
   -3.4320   -1.1410    1.5390 C   0  0
   -3.6760   -0.1860   -0.8380 C   0  0
   -2.8010   -0.4370    0.3870 C   0  0
   -2.6290   -1.3630    2.8010 C   0  0
   -1.5040   -0.0210    0.4390 C   0  0
   -1.1480   -1.5330    2.4710 C   0  0
   -0.8540    0.7970   -0.6760 C   0  0  1  0  0  0
   -0.6330   -0.3340    1.6560 C   0  0  1  0  0  0
   -1.1270    2.2480   -0.4790 C   0  0
    0.6540    0.5160   -0.8770 C   0  0
    0.8260   -0.6330    1.2750 C   0  0  1  0  0  0
   -1.8550    2.6820    0.6430 C   0  0
   -0.6560    3.1880   -1.4140 C   0  0
    1.4510    0.4860    0.4350 C   0  0  1  0  0  0
    1.8320   -0.7890    2.4220 C   0  0
   -2.1110    4.0530    0.8300 C   0  0
   -0.9120    4.5570   -1.2290 C   0  0
    2.9360    0.0290    0.3810 C   0  0  2  0  0  0
    1.3590    1.8280    1.1820 C   0  0
    3.1930   -0.3690    1.8480 C   0  0
   -1.6410    4.9900   -0.1060 C   0  0
    3.7970    1.0900   -0.0040 O   0  0
    3.1740   -1.1050   -0.5290 C   0  0
   -1.9120    6.4400    0.0900 C   0  0
    3.3730   -2.0210   -1.2600 C   0  0
    3.6150   -3.1500   -2.1540 C   0  0
    2.9020   -4.3850   -1.6000 C   0  0
    3.0680   -2.8090   -3.5410 C   0  0
    5.1210   -3.4060   -2.2330 C   0  0
   -5.1410   -2.0390    2.3810 H   0  0
   -5.5680   -0.7680   -1.7230 H   0  0
   -4.4820   -2.1000   -1.4200 H   0  0
   -3.1060   -0.2540   -1.7600 H   0  0
   -4.0590    0.8360   -0.7850 H   0  0
   -2.7660   -0.5100    3.4670 H   0  0
   -2.9860   -2.2440    3.3360 H   0  0
   -0.5800   -1.6410    3.3960 H   0  0
   -1.0060   -2.4570    1.9100 H   0  0
   -1.2930    0.5530   -1.6370 H   0  0
   -0.6560    0.5410    2.3070 H   0  0
    0.7420   -0.4470   -1.3850 H   0  0
    1.0960    1.2440   -1.5630 H   0  0
    0.8340   -1.5530    0.7030 H   0  0
   -2.2210    1.9670    1.3650 H   0  0
   -0.0960    2.8590   -2.2770 H   0  0
    1.8460   -1.8050    2.7910 H   0  0
    1.5700   -0.1460    3.2520 H   0  0
   -2.6720    4.3790    1.6930 H   0  0
   -0.5490    5.2720   -1.9510 H   0  0
    0.3360    2.0570    1.4800 H   0  0
    1.7110    2.6450    0.5510 H   0  0
    1.9750    1.8130    2.0800 H   0  0
    3.5650    0.4730    2.4200 H   0  0
    3.9320   -1.1540    1.9550 H   0  0
    3.4650    1.4360   -0.8480 H   0  0
   -1.4590    7.0080   -0.7210 H   0  0
   -2.9880    6.6000    0.1680 H   0  0
   -1.4590    6.7700    1.0230 H   0  0
    3.2560   -4.6450   -0.6020 H   0  0
    3.0630   -5.2480   -2.2440 H   0  0
    1.8280   -4.2130   -1.5370 H   0  0
    3.5450   -1.9220   -3.9590 H   0  0
    1.9960   -2.6230   -3.4980 H   0  0
    3.2360   -3.6350   -4.2340 H   0  0
    5.6600   -2.5370   -2.6080 H   0  0
    5.3380   -4.2440   -2.8950 H   0  0
    5.5220   -3.6470   -1.2460 H   0  0
  1  2  2  0
  2  3  1  0
  2  4  1  0
  3  5  2  0
  4  6  1  0
  5  7  1  0
  5  8  1  0
  7  9  2  0
  8 10  1  0
  9 11  1  0
  9 12  1  0
 11 13  1  0
 11 14  1  0
 12 15  1  0
 13 16  2  0
 13 17  1  0
 14 18  1  0
 15 19  1  0
 16 20  1  0
 17 21  2  0
 18 22  1  0
 18 23  1  0
 19 24  1  0
 20 25  2  0
 22 26  1  0
 22 27  1  0
 25 28  1  0
 27 29  3  0
 29 30  1  0
 30 31  1  0
 30 32  1  0
 30 33  1  0
  6  7  1  0
 12 10  1  0
 15 18  1  0
 21 25  1  0
 22 24  1  0
  3 34  1  0
  4 35  1  0
  4 36  1  0
  6 37  1  0
  6 38  1  0
  8 39  1  0
  8 40  1  0
 10 41  1  0
 10 42  1  0
 11 43  1  0
 12 44  1  0
 14 45  1  0
 14 46  1  0
 15 47  1  0
 16 48  1  0
 17 49  1  0
 19 50  1  0
 19 51  1  0
 20 52  1  0
 21 53  1  0
 23 54  1  0
 23 55  1  0
 23 56  1  0
 24 57  1  0
 24 58  1  0
 26 59  1  0
 28 60  1  0
 28 61  1  0
 28 62  1  0
 31 63  1  0
 31 64  1  0
 31 65  1  0
 32 66  1  0
 32 67  1  0
 32 68  1  0
 33 69  1  0
 33 70  1  0
 33 71  1  0
M  END
> <Name>
CHEMBL4170986

> <IC50 nM>
16.1

> <Molecule_ChEMBL_ID>
CHEMBL4170986

> <Smiles>
Cc1ccc([C@H]2C[C@@]3(C)[C@@H](CC[C@@]3(O)C#CC(C)(C)C)[C@@H]3CCC4=CC(=O)CCC4=C32)cc1

$$$$
CHEMBL4167608
  SciTegic08162514323D

 73 77  0  0  1  0            999 V2000
    4.3570   -2.7870    4.7300 O   0  0
    3.6600   -2.4530    3.8010 C   0  0
    2.7950   -3.4260    3.1150 C   0  0
    3.6450   -1.0330    3.2970 C   0  0
    1.8200   -3.0510    2.2620 C   0  0
    2.2400   -0.5840    2.8670 C   0  0
    1.4960   -1.6150    2.0250 C   0  0
    1.0430   -4.1270    1.5350 C   0  0
    0.5700   -1.2360    1.1010 C   0  0
   -0.3110   -3.6210    1.0410 C   0  0
    0.2340    0.2380    0.8550 C   0  0  1  0  0  0
   -0.1620   -2.2930    0.2750 C   0  0  1  0  0  0
    1.2710    0.8850    0.0100 C   0  0
   -1.1820    0.4960    0.2810 C   0  0
   -1.5670   -1.8500   -0.1800 C   0  0  1  0  0  0
    2.3530    0.1310   -0.4770 C   0  0
    1.1720    2.2520   -0.3030 C   0  0
   -1.5630   -0.4710   -0.8580 C   0  0  1  0  0  0
   -2.2340   -2.7110   -1.2520 C   0  0
    3.3360    0.7420   -1.2750 C   0  0
    2.1520    2.8650   -1.1020 C   0  0
   -2.9940   -0.4000   -1.4810 C   0  0  2  0  0  0
   -0.4920   -0.4670   -1.9630 C   0  0
   -3.4630   -1.8710   -1.5820 C   0  0
    3.2360    2.1110   -1.5920 C   0  0
   -2.9790    0.1740   -2.7770 O   0  0
   -3.9320    0.3980   -0.6840 C   0  0
    4.1910    2.7070   -2.3690 N   0  0
   -4.6970    1.0550   -0.0510 C   0  0
    4.0060    4.0720   -2.8850 C   0  0
    5.4280    1.9820   -2.7010 C   0  0
   -5.6370    1.8730    0.7110 C   0  0
   -4.9510    2.4000    1.9730 C   0  0
   -6.1450    3.0250   -0.1560 C   0  0
    2.9610   -4.4770    3.3070 H   0  0
    4.0330   -0.3590    4.0620 H   0  0
    4.3240   -0.9610    2.4470 H   0  0
    2.3590    0.3570    2.3360 H   0  0
    1.6410   -0.3630    3.7500 H   0  0
    0.8960   -4.9940    2.1840 H   0  0
    1.6350   -4.4730    0.6850 H   0  0
   -0.9810   -3.4920    1.8930 H   0  0
   -0.7640   -4.3850    0.4080 H   0  0
    0.2600    0.7620    1.8100 H   0  0
    0.4430   -2.4900   -0.6090 H   0  0
   -1.2790    1.5330   -0.0530 H   0  0
   -1.8930    0.3930    1.1030 H   0  0
   -2.2170   -1.8240    0.6870 H   0  0
    2.4360   -0.9200   -0.2380 H   0  0
    0.3420    2.8360    0.0680 H   0  0
   -1.5980   -2.8340   -2.1170 H   0  0
   -2.5020   -3.6930   -0.8950 H   0  0
    4.1600    0.1460   -1.6430 H   0  0
    2.0590    3.9180   -1.3320 H   0  0
   -0.7540   -1.1350   -2.7830 H   0  0
    0.4730   -0.7870   -1.5670 H   0  0
   -0.3670    0.5350   -2.3750 H   0  0
   -4.2330   -2.1060   -0.8560 H   0  0
   -3.8690   -2.1370   -2.5470 H   0  0
   -3.8460    0.0060   -3.1760 H   0  0
    3.0180    4.2730   -3.2970 H   0  0
    4.7380    4.2620   -3.6700 H   0  0
    4.1860    4.7870   -2.0820 H   0  0
    5.9180    1.5040   -1.8540 H   0  0
    6.1410    2.6760   -3.1510 H   0  0
    5.2030    1.2110   -3.4380 H   0  0
   -6.4870    1.2480    0.9880 H   0  0
   -4.5900    1.5900    2.6070 H   0  0
   -5.6430    3.0020    2.5620 H   0  0
   -4.1000    3.0270    1.7150 H   0  0
   -6.6310    2.6460   -1.0550 H   0  0
   -6.8520    3.6430    0.3980 H   0  0
   -5.3190    3.6660   -0.4690 H   0  0
  1  2  2  0
  2  3  1  0
  2  4  1  0
  3  5  2  0
  4  6  1  0
  5  7  1  0
  5  8  1  0
  7  9  2  0
  8 10  1  0
  9 11  1  0
  9 12  1  0
 11 13  1  0
 11 14  1  0
 12 15  1  0
 13 16  2  0
 13 17  1  0
 14 18  1  0
 15 19  1  0
 16 20  1  0
 17 21  2  0
 18 22  1  0
 18 23  1  0
 19 24  1  0
 20 25  2  0
 22 26  1  0
 22 27  1  0
 25 28  1  0
 27 29  3  0
 28 30  1  0
 28 31  1  0
 29 32  1  0
 32 33  1  0
 32 34  1  0
  6  7  1  0
 12 10  1  0
 15 18  1  0
 21 25  1  0
 22 24  1  0
  3 35  1  0
  4 36  1  0
  4 37  1  0
  6 38  1  0
  6 39  1  0
  8 40  1  0
  8 41  1  0
 10 42  1  0
 10 43  1  0
 11 44  1  0
 12 45  1  0
 14 46  1  0
 14 47  1  0
 15 48  1  0
 16 49  1  0
 17 50  1  0
 19 51  1  0
 19 52  1  0
 20 53  1  0
 21 54  1  0
 23 55  1  0
 23 56  1  0
 23 57  1  0
 24 58  1  0
 24 59  1  0
 26 60  1  0
 30 61  1  0
 30 62  1  0
 30 63  1  0
 31 64  1  0
 31 65  1  0
 31 66  1  0
 32 67  1  0
 33 68  1  0
 33 69  1  0
 33 70  1  0
 34 71  1  0
 34 72  1  0
 34 73  1  0
M  END
> <Name>
CHEMBL4167608

> <IC50 nM>
26

> <Molecule_ChEMBL_ID>
CHEMBL4167608

> <Smiles>
CC(C)C#C[C@]1(O)CC[C@H]2[C@@H]3CCC4=CC(=O)CCC4=C3[C@@H](c3ccc(N(C)C)cc3)C[C@@]21C

$$$$
CHEMBL4159692
  SciTegic08162514323D

 70 74  0  0  1  0            999 V2000
    4.0900   -2.6450    4.7150 O   0  0
    3.3890   -2.3110    3.7890 C   0  0
    2.5250   -3.2830    3.1020 C   0  0
    3.3750   -0.8910    3.2830 C   0  0
    1.5490   -2.9080    2.2480 C   0  0
    1.9710   -0.4430    2.8540 C   0  0
    1.2270   -1.4690    2.0100 C   0  0
    0.7750   -3.9840    1.5220 C   0  0
    0.3010   -1.0920    1.0880 C   0  0
   -0.5820   -3.4770    1.0270 C   0  0
   -0.0370    0.3810    0.8420 C   0  0  1  0  0  0
   -0.4340   -2.1470    0.2640 C   0  0  1  0  0  0
    1.0020    1.0250   -0.0020 C   0  0
   -1.4530    0.6410    0.2750 C   0  0
   -1.8380   -1.7030   -0.1890 C   0  0  1  0  0  0
    2.0820    0.2660   -0.4900 C   0  0
    0.9060    2.3910   -0.3160 C   0  0
   -1.8340   -0.3220   -0.8690 C   0  0  1  0  0  0
   -2.5060   -2.5630   -1.2620 C   0  0
    3.0640    0.8730   -1.2890 C   0  0
    1.8890    3.0000   -1.1170 C   0  0
   -3.2680   -0.2480   -1.4940 C   0  0  2  0  0  0
   -0.7540   -0.3220   -1.9770 C   0  0
   -3.7360   -1.7190   -1.5920 C   0  0
    2.9710    2.2420   -1.6050 C   0  0
   -3.2380    0.3090   -2.7990 O   0  0
   -4.2110    0.5600   -0.7130 C   0  0
    3.9300    2.8360   -2.3850 N   0  0
   -4.9790    1.2270   -0.0940 C   0  0
    3.8500    4.2620   -2.7280 C   0  0
    5.0590    2.0430   -2.8910 C   0  0
   -5.9140    2.0570    0.6500 C   0  0
   -5.2480    2.6110    1.9060 C   0  0
    2.6930   -4.3340    3.2930 H   0  0
    3.7640   -0.2170    4.0490 H   0  0
    4.0570   -0.8180    2.4340 H   0  0
    2.0900    0.5000    2.3220 H   0  0
    1.3710   -0.2190    3.7360 H   0  0
    0.6270   -4.8520    2.1700 H   0  0
    1.3670   -4.3280    0.6720 H   0  0
   -1.2480   -3.3500    1.8790 H   0  0
   -1.0330   -4.2420    0.3950 H   0  0
   -0.0080    0.9040    1.7970 H   0  0
    0.1720   -2.3460   -0.6210 H   0  0
   -1.5510    1.6740   -0.0600 H   0  0
   -2.1680    0.5450    1.0960 H   0  0
   -2.4860   -1.6860    0.6800 H   0  0
    2.1580   -0.7850   -0.2520 H   0  0
    0.0800    2.9790    0.0550 H   0  0
   -1.8710   -2.6840   -2.1290 H   0  0
   -2.7770   -3.5470   -0.9080 H   0  0
    3.8870    0.2730   -1.6540 H   0  0
    1.7990    4.0530   -1.3480 H   0  0
   -1.0310   -0.9610   -2.8140 H   0  0
    0.1990   -0.6820   -1.5860 H   0  0
   -0.5960    0.6860   -2.3610 H   0  0
   -4.5020   -1.9470   -0.8610 H   0  0
   -4.1490   -1.9900   -2.5550 H   0  0
   -4.1040    0.1370   -3.2030 H   0  0
    2.9040    4.5720   -3.1760 H   0  0
    4.6470    4.5060   -3.4300 H   0  0
    4.0020    4.8570   -1.8280 H   0  0
    5.6210    1.5060   -2.1250 H   0  0
    5.7540    2.7010   -3.4120 H   0  0
    4.6890    1.3090   -3.6070 H   0  0
   -6.7850    1.4630    0.9140 H   0  0
   -6.2620    2.8690    0.0180 H   0  0
   -5.9420    3.2400    2.4630 H   0  0
   -4.9060    1.8010    2.5490 H   0  0
   -4.3830    3.2190    1.6450 H   0  0
  1  2  2  0
  2  3  1  0
  2  4  1  0
  3  5  2  0
  4  6  1  0
  5  7  1  0
  5  8  1  0
  7  9  2  0
  8 10  1  0
  9 11  1  0
  9 12  1  0
 11 13  1  0
 11 14  1  0
 12 15  1  0
 13 16  2  0
 13 17  1  0
 14 18  1  0
 15 19  1  0
 16 20  1  0
 17 21  2  0
 18 22  1  0
 18 23  1  0
 19 24  1  0
 20 25  2  0
 22 26  1  0
 22 27  1  0
 25 28  1  0
 27 29  3  0
 28 30  1  0
 28 31  1  0
 29 32  1  0
 32 33  1  0
  6  7  1  0
 12 10  1  0
 15 18  1  0
 21 25  1  0
 22 24  1  0
  3 34  1  0
  4 35  1  0
  4 36  1  0
  6 37  1  0
  6 38  1  0
  8 39  1  0
  8 40  1  0
 10 41  1  0
 10 42  1  0
 11 43  1  0
 12 44  1  0
 14 45  1  0
 14 46  1  0
 15 47  1  0
 16 48  1  0
 17 49  1  0
 19 50  1  0
 19 51  1  0
 20 52  1  0
 21 53  1  0
 23 54  1  0
 23 55  1  0
 23 56  1  0
 24 57  1  0
 24 58  1  0
 26 59  1  0
 30 60  1  0
 30 61  1  0
 30 62  1  0
 31 63  1  0
 31 64  1  0
 31 65  1  0
 32 66  1  0
 32 67  1  0
 33 68  1  0
 33 69  1  0
 33 70  1  0
M  END
> <Name>
CHEMBL4159692

> <IC50 nM>
8.5

> <Molecule_ChEMBL_ID>
CHEMBL4159692

> <Smiles>
CCC#C[C@]1(O)CC[C@H]2[C@@H]3CCC4=CC(=O)CCC4=C3[C@@H](c3ccc(N(C)C)cc3)C[C@@]21C

$$$$
CHEMBL4159430
  SciTegic08162514323D

 59 63  0  0  1  0            999 V2000
   -4.2110   -1.8110    3.3090 O   0  0
   -3.7910   -1.4960    2.2190 C   0  0
   -3.8980   -0.1040    1.7580 C   0  0
   -3.1410   -2.5160    1.3140 C   0  0
   -3.0590    0.3950    0.8300 C   0  0
   -2.2310   -1.9430    0.2090 C   0  0
   -1.9940   -0.4410    0.2420 C   0  0
   -3.1390    1.8320    0.3850 C   0  0
   -0.8480    0.1290   -0.2190 C   0  0
   -1.7500    2.4450    0.5760 C   0  0
    0.3320   -0.6990   -0.7420 C   0  0  1  0  0  0
   -0.6450    1.6470   -0.1600 C   0  0  1  0  0  0
   -0.0230   -1.6210   -1.8670 C   0  0
    1.5860    0.1370   -1.1190 C   0  0
    0.6910    1.8440    0.5720 C   0  0  1  0  0  0
    0.3910   -2.9650   -1.8340 C   0  0
   -0.7710   -1.1450   -2.9590 C   0  0
    1.8690    1.4470   -0.3440 C   0  0  1  0  0  0
    1.1910    3.1540    1.1820 C   0  0
    0.0570   -3.8300   -2.8910 C   0  0
   -1.1050   -2.0100   -4.0160 C   0  0
    2.9860    1.4750    0.7360 C   0  0  2  0  0  0
    2.1170    2.5760   -1.3770 C   0  0
    2.6350    2.7600    1.5450 C   0  0
   -0.6910   -3.3520   -3.9810 C   0  0
    4.2750    1.5840    0.1600 O   0  0
    2.9770    0.2660    1.5860 C   0  0
    2.9470   -0.7110    2.2680 C   0  0
    2.8890   -1.9160    3.0960 C   0  0
   -4.6620    0.5250    2.1880 H   0  0
   -2.5640   -3.2170    1.9200 H   0  0
   -3.9300   -3.1090    0.8500 H   0  0
   -1.2870   -2.4820    0.2770 H   0  0
   -2.6580   -2.1910   -0.7640 H   0  0
   -3.8870    2.3850    0.9570 H   0  0
   -3.4380    1.8790   -0.6640 H   0  0
   -1.5490    2.4860    1.6500 H   0  0
   -1.7460    3.4820    0.2380 H   0  0
    0.6310   -1.3500    0.0800 H   0  0
   -0.5760    2.0290   -1.1780 H   0  0
    2.4690   -0.5000   -1.0880 H   0  0
    1.4820    0.4000   -2.1740 H   0  0
    0.6190    1.1820    1.4260 H   0  0
    0.9650   -3.3380   -1.0000 H   0  0
   -1.0940   -0.1130   -2.9900 H   0  0
    0.6190    3.4690    2.0410 H   0  0
    1.1660    3.9630    0.4650 H   0  0
    0.3750   -4.8610   -2.8650 H   0  0
   -1.6800   -1.6430   -4.8540 H   0  0
    2.5720    3.4530   -0.9180 H   0  0
    1.1820    2.8890   -1.8400 H   0  0
    2.7810    2.2310   -2.1700 H   0  0
    3.2910    3.5880    1.3110 H   0  0
    2.7210    2.6060    2.6130 H   0  0
   -0.9470   -4.0180   -4.7930 H   0  0
    4.8890    1.8280    0.8710 H   0  0
    3.6780   -1.9160    3.8480 H   0  0
    1.9280   -1.9800    3.6070 H   0  0
    3.0040   -2.8070    2.4770 H   0  0
  1  2  2  0
  2  3  1  0
  2  4  1  0
  3  5  2  0
  4  6  1  0
  5  7  1  0
  5  8  1  0
  7  9  2  0
  8 10  1  0
  9 11  1  0
  9 12  1  0
 11 13  1  0
 11 14  1  0
 12 15  1  0
 13 16  2  0
 13 17  1  0
 14 18  1  0
 15 19  1  0
 16 20  1  0
 17 21  2  0
 18 22  1  0
 18 23  1  0
 19 24  1  0
 20 25  2  0
 22 26  1  0
 22 27  1  0
 27 28  3  0
 28 29  1  0
  6  7  1  0
 12 10  1  0
 15 18  1  0
 21 25  1  0
 22 24  1  0
  3 30  1  0
  4 31  1  0
  4 32  1  0
  6 33  1  0
  6 34  1  0
  8 35  1  0
  8 36  1  0
 10 37  1  0
 10 38  1  0
 11 39  1  0
 12 40  1  0
 14 41  1  0
 14 42  1  0
 15 43  1  0
 16 44  1  0
 17 45  1  0
 19 46  1  0
 19 47  1  0
 20 48  1  0
 21 49  1  0
 23 50  1  0
 23 51  1  0
 23 52  1  0
 24 53  1  0
 24 54  1  0
 25 55  1  0
 26 56  1  0
 29 57  1  0
 29 58  1  0
 29 59  1  0
M  END
> <Name>
CHEMBL4159430

> <IC50 nM>
14.2

> <Molecule_ChEMBL_ID>
CHEMBL4159430

> <Smiles>
CC#C[C@]1(O)CC[C@H]2[C@@H]3CCC4=CC(=O)CCC4=C3[C@@H](c3ccccc3)C[C@@]21C

$$$$
CHEMBL4167332
  SciTegic08162514323D

 65 69  0  0  1  0            999 V2000
   -4.2460   -1.7030    3.6780 O   0  0
   -3.8360   -1.3890    2.5840 C   0  0
   -3.9550    0.0040    2.1270 C   0  0
   -3.1860   -2.4040    1.6760 C   0  0
   -3.1150    0.5060    1.2010 C   0  0
   -2.2770   -1.8280    0.5660 C   0  0
   -2.0490   -0.3240    0.6170 C   0  0
   -3.1990    1.9430    0.7560 C   0  0
   -0.9020    0.2500    0.1700 C   0  0
   -1.8130    2.5610    0.9510 C   0  0
    0.2680   -0.5880   -0.3360 C   0  0  1  0  0  0
   -0.7010    1.7660    0.2210 C   0  0  1  0  0  0
   -0.1270   -1.5250   -1.4860 C   0  0
    1.5160    0.2360   -0.7340 C   0  0
    0.6330    1.9570    0.9510 C   0  0  1  0  0  0
    1.1110   -2.2110   -2.0920 C   0  0
   -0.9260   -0.7730   -2.5640 C   0  0
    1.8070    1.5510    0.0350 C   0  0  1  0  0  0
    1.1350    3.2700    1.5510 C   0  0
    0.7480   -3.1150   -3.2790 C   0  0
   -1.2870   -1.6780   -3.7520 C   0  0
    2.9260    1.5840    1.1110 C   0  0  2  0  0  0
    2.0550    2.6600   -1.0080 C   0  0
    2.5780    2.8710    1.9180 C   0  0
   -0.0410   -2.3480   -4.3480 C   0  0
    4.2130    1.6930    0.5290 O   0  0
    2.9180    0.3770    1.9630 C   0  0
    2.8890   -0.6000    2.6450 C   0  0
    2.8280   -1.8070    3.4690 C   0  0
   -4.7190    0.6290    2.5570 H   0  0
   -2.6090   -3.1070    2.2810 H   0  0
   -3.9750   -2.9960    1.2130 H   0  0
   -1.3320   -2.3670    0.6150 H   0  0
   -2.7090   -2.0680   -0.4060 H   0  0
   -3.9450    2.4940    1.3280 H   0  0
   -3.4960    1.9920   -0.2930 H   0  0
   -1.6090    2.6000    2.0250 H   0  0
   -1.8070    3.5980    0.6110 H   0  0
    0.5780   -1.2210    0.4960 H   0  0
   -0.6330    2.1390   -0.8010 H   0  0
   -0.7700   -2.3010   -1.0700 H   0  0
    2.4000   -0.4020   -0.7190 H   0  0
    1.3750    0.4840   -1.7910 H   0  0
    0.5590    1.3010    1.8090 H   0  0
    1.8220   -1.4510   -2.4260 H   0  0
    1.6250   -2.7950   -1.3280 H   0  0
   -1.8360   -0.3590   -2.1310 H   0  0
   -0.3440    0.0760   -2.9260 H   0  0
    0.5620    3.5860    2.4100 H   0  0
    1.1110    4.0740    0.8300 H   0  0
    0.1520   -3.9570   -2.9240 H   0  0
    1.6520   -3.5370   -3.7150 H   0  0
   -1.9900   -2.4450   -3.4260 H   0  0
   -1.7970   -1.0960   -4.5200 H   0  0
    2.5100    3.5450   -0.5590 H   0  0
    1.1190    2.9690   -1.4750 H   0  0
    2.7210    2.3090   -1.7950 H   0  0
    3.2360    3.6950    1.6860 H   0  0
    2.6580    2.7150    2.9840 H   0  0
   -0.3280   -3.0220   -5.1540 H   0  0
    0.6000   -1.5880   -4.7930 H   0  0
    4.8280    1.9410    1.2380 H   0  0
    3.6190   -1.8050    4.2190 H   0  0
    1.8670   -1.8690    3.9810 H   0  0
    2.9430   -2.6950    2.8480 H   0  0
  1  2  2  0
  2  3  1  0
  2  4  1  0
  3  5  2  0
  4  6  1  0
  5  7  1  0
  5  8  1  0
  7  9  2  0
  8 10  1  0
  9 11  1  0
  9 12  1  0
 11 13  1  0
 11 14  1  0
 12 15  1  0
 13 16  1  0
 13 17  1  0
 14 18  1  0
 15 19  1  0
 16 20  1  0
 17 21  1  0
 18 22  1  0
 18 23  1  0
 19 24  1  0
 20 25  1  0
 22 26  1  0
 22 27  1  0
 27 28  3  0
 28 29  1  0
  6  7  1  0
 12 10  1  0
 15 18  1  0
 21 25  1  0
 22 24  1  0
  3 30  1  0
  4 31  1  0
  4 32  1  0
  6 33  1  0
  6 34  1  0
  8 35  1  0
  8 36  1  0
 10 37  1  0
 10 38  1  0
 11 39  1  0
 12 40  1  0
 13 41  1  0
 14 42  1  0
 14 43  1  0
 15 44  1  0
 16 45  1  0
 16 46  1  0
 17 47  1  0
 17 48  1  0
 19 49  1  0
 19 50  1  0
 20 51  1  0
 20 52  1  0
 21 53  1  0
 21 54  1  0
 23 55  1  0
 23 56  1  0
 23 57  1  0
 24 58  1  0
 24 59  1  0
 25 60  1  0
 25 61  1  0
 26 62  1  0
 29 63  1  0
 29 64  1  0
 29 65  1  0
M  END
> <Name>
CHEMBL4167332

> <IC50 nM>
18.1

> <Molecule_ChEMBL_ID>
CHEMBL4167332

> <Smiles>
CC#C[C@]1(O)CC[C@H]2[C@@H]3CCC4=CC(=O)CCC4=C3[C@@H](C3CCCCC3)C[C@@]21C

$$$$
CHEMBL1668071
  SciTegic08162514323D

 68 71  0  0  1  0            999 V2000
   -1.7010   -1.6580    1.7440 S   0  0
   -0.6780   -0.6990    1.3670 O   0  0
   -2.9650   -1.0370    2.1000 O   0  0
   -2.0160   -2.6080    0.3200 N   0  0
   -1.1330   -2.5530    3.1110 C   0  0
   -0.9040   -3.3200   -0.2830 C   0  0  2  0  0  0
    0.2480   -2.6170    3.3830 C   0  0
   -2.0490   -3.2130    3.9490 C   0  0
   -0.0740   -2.3770   -1.1540 C   0  0
   -1.4040   -4.5430   -1.0510 C   0  0
    0.7090   -3.3440    4.4940 C   0  0
    1.2210   -1.9200    2.5000 C   0  0
   -1.5840   -3.9400    5.0610 C   0  0
   -3.5080   -3.1490    3.6680 C   0  0
   -0.9020   -1.7620   -2.2030 N   0  0
   -0.2050   -4.0060    5.3340 C   0  0
   -1.0160   -0.4220   -2.2720 C   0  0
    0.2830   -4.7740    6.5080 C   0  0
    0.2170    0.3080   -2.3810 C   0  0
   -2.2580    0.2620   -2.2420 C   0  0
    0.1390    1.6910   -2.4530 C   0  0
    1.4940   -0.2520   -2.4180 C   0  0
   -2.2870    1.6780   -2.3220 C   0  0
    1.4430    2.0600   -2.5450 N   0  0
   -1.0800    2.4100   -2.4280 C   0  0
    2.2070    0.9200   -2.5240 N   0  0
   -3.5760    2.3890   -2.2930 C   0  0
    1.9280    3.3260   -2.6430 C   0  0
    1.3110    4.2560   -3.5040 C   0  0
    3.0470    3.7150   -1.8810 C   0  0
    1.8120    5.5640   -3.6040 C   0  0
    3.5490    5.0250   -1.9820 C   0  0
    2.9320    5.9530   -2.8440 C   0  0
    3.4200    7.2290   -2.9410 N   0  0
    4.5940    7.6290   -2.1500 C   0  0
   -2.7640   -3.2890    0.5210 H   0  0
   -0.3420   -3.6230    0.6000 H   0  0
    0.3790   -1.5920   -0.5490 H   0  0
    0.7560   -2.9100   -1.6190 H   0  0
   -0.5900   -5.0800   -1.5370 H   0  0
   -2.1170   -4.2500   -1.8220 H   0  0
   -1.9080   -5.2400   -0.3810 H   0  0
    1.7680   -3.3950    4.7030 H   0  0
    1.0820   -2.1150    1.4370 H   0  0
    2.2340   -2.2270    2.7660 H   0  0
    1.1460   -0.8440    2.6560 H   0  0
   -2.2870   -4.4470    5.7050 H   0  0
   -3.7680   -3.2780    2.6170 H   0  0
   -3.8970   -2.1840    3.9920 H   0  0
   -4.0220   -3.9240    4.2360 H   0  0
   -1.3870   -2.3280   -2.8690 H   0  0
   -0.5040   -5.2520    7.0900 H   0  0
    0.8340   -4.1100    7.1740 H   0  0
    0.9710   -5.5510    6.1720 H   0  0
   -3.1840   -0.2910   -2.1620 H   0  0
    1.8710   -1.2680   -2.3830 H   0  0
   -1.0880    3.4900   -2.4880 H   0  0
   -4.4450    1.7380   -2.2030 H   0  0
   -3.6900    2.9730   -3.2050 H   0  0
   -3.5900    3.0800   -1.4490 H   0  0
    0.4510    3.9770   -4.0960 H   0  0
    3.5330    3.0180   -1.2150 H   0  0
    1.3260    6.2640   -4.2700 H   0  0
    4.4080    5.3050   -1.3910 H   0  0
    2.9800    7.8870   -3.5510 H   0  0
    4.3520    7.5530   -1.0900 H   0  0
    5.4490    7.0230   -2.4470 H   0  0
    4.8300    8.6720   -2.3630 H   0  0
  1  2  2  0
  1  3  2  0
  1  4  1  0
  1  5  1  0
  4  6  1  0
  5  7  2  0
  5  8  1  0
  6  9  1  0
  6 10  1  0
  7 11  1  0
  7 12  1  0
  8 13  2  0
  8 14  1  0
  9 15  1  0
 11 16  2  0
 15 17  1  0
 16 18  1  0
 17 19  2  0
 17 20  1  0
 19 21  1  0
 19 22  1  0
 20 23  2  0
 21 24  1  0
 21 25  2  0
 22 26  2  0
 23 27  1  0
 24 28  1  0
 28 29  2  0
 28 30  1  0
 29 31  1  0
 30 32  2  0
 31 33  2  0
 33 34  1  0
 34 35  1  0
 13 16  1  0
 23 25  1  0
 24 26  1  0
 32 33  1  0
  4 36  1  0
  6 37  1  0
  9 38  1  0
  9 39  1  0
 10 40  1  0
 10 41  1  0
 10 42  1  0
 11 43  1  0
 12 44  1  0
 12 45  1  0
 12 46  1  0
 13 47  1  0
 14 48  1  0
 14 49  1  0
 14 50  1  0
 15 51  1  0
 18 52  1  0
 18 53  1  0
 18 54  1  0
 20 55  1  0
 22 56  1  0
 25 57  1  0
 27 58  1  0
 27 59  1  0
 27 60  1  0
 29 61  1  0
 30 62  1  0
 31 63  1  0
 32 64  1  0
 34 65  1  0
 35 66  1  0
 35 67  1  0
 35 68  1  0
M  END
> <Name>
CHEMBL1668071

> <IC50 nM>
19.95

> <Molecule_ChEMBL_ID>
CHEMBL1668071

> <Smiles>
CNc1ccc(-n2ncc3c(NC[C@H](C)NS(=O)(=O)c4c(C)cc(C)cc4C)cc(C)cc32)cc1

$$$$
CHEMBL2087285
  SciTegic08162514323D

 57 60  0  0  0  0            999 V2000
   -1.6490   -1.8380   -0.9140 Br  0  0
   -2.3690   -1.0530    0.6540 C   0  0
   -1.8580    0.1430    1.2310 C   0  0
   -3.4610   -1.7070    1.2560 C   0  0
   -0.7890    0.7930    0.6520 N   0  0
   -2.4610    0.6620    2.4100 C   0  0
   -4.0490   -1.1890    2.4180 C   0  0
   -0.9340    1.4920   -0.6330 C   0  0
    0.5190    0.7930    1.3200 C   0  0
   -1.8670    2.2460    3.2680 Br  0  0
   -3.5510   -0.0120    2.9920 C   0  0
   -5.2030   -1.8910    3.0430 C   0  0
   -1.0960    2.9570   -0.4430 C   0  0
    1.4770   -0.1270    0.6520 C   0  0
   -4.7640   -2.9080    4.0630 C   0  0
   -2.3730    3.4980   -0.2110 C   0  0
    0.0250    3.8030   -0.4960 C   0  0
    1.4690   -1.4980    0.9690 C   0  0
    2.3870    0.3690   -0.2950 C   0  0
   -4.6020   -4.0640    3.7560 O   0  0
   -4.5760   -2.4340    5.2910 O   0  0
   -2.5270    4.8850   -0.0350 C   0  0
   -0.1270    5.1900   -0.3160 C   0  0
    2.3730   -2.3690    0.3360 C   0  0
    3.2910   -0.5040   -0.9260 C   0  0
   -3.7360    5.3990    0.1820 F   0  0
   -1.4040    5.7310   -0.0860 C   0  0
    0.9350    5.9880   -0.3650 F   0  0
    3.2870   -1.8750   -0.6110 C   0  0
    4.1350   -2.6910   -1.2030 O   0  0
    4.4220   -2.4750   -2.4710 C   0  0
    5.7250   -2.6990   -2.9490 C   0  0
    3.4280   -2.0140   -3.3520 C   0  0
    6.0330   -2.4670   -4.3010 C   0  0
    3.7320   -1.7810   -4.7030 C   0  0
    5.0370   -2.0060   -5.1780 C   0  0
   -3.8610   -2.6150    0.8280 H   0  0
   -1.8010    1.0960   -1.1620 H   0  0
   -0.0530    1.3010   -1.2460 H   0  0
    0.3930    0.4940    2.3600 H   0  0
    0.9260    1.8050    1.3130 H   0  0
   -4.0180    0.3690    3.8910 H   0  0
   -5.8610   -1.1580    3.5100 H   0  0
   -5.7970   -2.3750    2.2680 H   0  0
   -3.2360    2.8500   -0.1700 H   0  0
    1.0080    3.3870   -0.6760 H   0  0
    0.7710   -1.8870    1.6950 H   0  0
    2.3980    1.4200   -0.5430 H   0  0
   -4.7700   -1.5040    5.4730 H   0  0
    2.3650   -3.4200    0.5820 H   0  0
    3.9900   -0.1170   -1.6520 H   0  0
   -1.5240    6.7950    0.0510 H   0  0
    6.4940   -3.0530   -2.2770 H   0  0
    2.4240   -1.8400   -2.9920 H   0  0
    7.0350   -2.6410   -4.6640 H   0  0
    2.9670   -1.4280   -5.3790 H   0  0
    5.2710   -1.8280   -6.2170 H   0  0
  1  2  1  0
  2  3  2  0
  2  4  1  0
  3  5  1  0
  3  6  1  0
  4  7  2  0
  5  8  1  0
  5  9  1  0
  6 10  1  0
  6 11  2  0
  7 12  1  0
  8 13  1  0
  9 14  1  0
 12 15  1  0
 13 16  2  0
 13 17  1  0
 14 18  2  0
 14 19  1  0
 15 20  2  0
 15 21  1  0
 16 22  1  0
 17 23  2  0
 18 24  1  0
 19 25  2  0
 22 26  1  0
 22 27  2  0
 23 28  1  0
 24 29  2  0
 29 30  1  0
 30 31  1  0
 31 32  2  0
 31 33  1  0
 32 34  1  0
 33 35  2  0
 34 36  2  0
  7 11  1  0
 23 27  1  0
 25 29  1  0
 35 36  1  0
  4 37  1  0
  8 38  1  0
  8 39  1  0
  9 40  1  0
  9 41  1  0
 11 42  1  0
 12 43  1  0
 12 44  1  0
 16 45  1  0
 17 46  1  0
 18 47  1  0
 19 48  1  0
 21 49  1  0
 24 50  1  0
 25 51  1  0
 27 52  1  0
 32 53  1  0
 33 54  1  0
 34 55  1  0
 35 56  1  0
 36 57  1  0
M  END
> <Name>
CHEMBL2087285

> <IC50 nM>
722

> <Molecule_ChEMBL_ID>
CHEMBL2087285

> <Smiles>
O=C(O)Cc1cc(Br)c(N(Cc2ccc(Oc3ccccc3)cc2)Cc2cc(F)cc(F)c2)c(Br)c1

$$$$
CHEMBL2087293
  SciTegic08162514323D

 57 60  0  0  0  0            999 V2000
    2.9430    2.8790    0.3090 Br  0  0
    1.1190    2.4280    0.5660 C   0  0
    0.3610    1.6840   -0.3790 C   0  0
    0.5140    2.8610    1.7600 C   0  0
    0.9430    1.2500   -1.5530 N   0  0
   -1.0020    1.3890   -0.1040 C   0  0
   -0.8300    2.5680    2.0250 C   0  0
    0.6780    1.9360   -2.8260 C   0  0
    1.8460    0.0900   -1.5410 C   0  0
   -2.1110    0.4040   -1.2850 Br  0  0
   -1.5840    1.8360    1.0980 C   0  0
   -1.4590    3.0330    3.2910 C   0  0
    0.5140    3.4000   -2.6370 C   0  0
    1.3030   -1.0180   -0.7130 C   0  0
   -1.8200    1.8890    4.1970 C   0  0
   -0.7620    3.9410   -2.4040 C   0  0
    1.6370    4.2460   -2.6900 C   0  0
    1.6010   -1.0800    0.6600 C   0  0
    0.4880   -2.0020   -1.2990 C   0  0
   -1.1370    0.8930    4.2460 O   0  0
   -2.9240    2.0640    4.9180 O   0  0
   -0.9160    5.3280   -2.2270 C   0  0
    1.4820    5.6310   -2.5100 C   0  0
    1.0880   -2.1290    1.4430 C   0  0
   -0.0240   -3.0490   -0.5140 C   0  0
   -2.1250    5.8420   -2.0100 F   0  0
    0.2050    6.1720   -2.2790 C   0  0
    2.5450    6.4320   -2.5570 F   0  0
    0.2730   -3.1150    0.8590 C   0  0
   -0.2090   -4.0980    1.5940 O   0  0
   -0.3070   -5.2910    1.0450 C   0  0
   -1.4280   -6.1170    1.2850 C   0  0
    0.7250   -5.7460    0.2030 C   0  0
   -2.8320   -5.5430    2.4080 Br  0  0
   -1.5040   -7.3870    0.6820 C   0  0
    0.6460   -7.0140   -0.3970 C   0  0
   -0.4690   -7.8380   -0.1600 C   0  0
   -0.5740   -9.5370   -0.9670 Br  0  0
    1.0780    3.4280    2.4900 H   0  0
   -0.2290    1.5230   -3.2720 H   0  0
    1.5020    1.7460   -3.5140 H   0  0
    2.8160    0.3950   -1.1500 H   0  0
    1.9920   -0.2600   -2.5630 H   0  0
   -2.6210    1.6210    1.3200 H   0  0
   -0.7790    3.7130    3.8050 H   0  0
   -2.3480    3.6190    3.0610 H   0  0
   -1.6250    3.2930   -2.3610 H   0  0
    2.6190    3.8300   -2.8690 H   0  0
    2.2260   -0.3260    1.1170 H   0  0
    0.2560   -1.9590   -2.3540 H   0  0
   -3.2130    1.3670    5.5220 H   0  0
    1.3200   -2.1740    2.4960 H   0  0
   -0.6490   -3.8030   -0.9690 H   0  0
    0.0880    7.2380   -2.1430 H   0  0
    1.5840   -5.1190    0.0180 H   0  0
   -2.3610   -8.0220    0.8630 H   0  0
    1.4510   -7.3420   -1.0370 H   0  0
  1  2  1  0
  2  3  2  0
  2  4  1  0
  3  5  1  0
  3  6  1  0
  4  7  2  0
  5  8  1  0
  5  9  1  0
  6 10  1  0
  6 11  2  0
  7 12  1  0
  8 13  1  0
  9 14  1  0
 12 15  1  0
 13 16  2  0
 13 17  1  0
 14 18  2  0
 14 19  1  0
 15 20  2  0
 15 21  1  0
 16 22  1  0
 17 23  2  0
 18 24  1  0
 19 25  2  0
 22 26  1  0
 22 27  2  0
 23 28  1  0
 24 29  2  0
 29 30  1  0
 30 31  1  0
 31 32  2  0
 31 33  1  0
 32 34  1  0
 32 35  1  0
 33 36  2  0
 35 37  2  0
 37 38  1  0
  7 11  1  0
 23 27  1  0
 25 29  1  0
 36 37  1  0
  4 39  1  0
  8 40  1  0
  8 41  1  0
  9 42  1  0
  9 43  1  0
 11 44  1  0
 12 45  1  0
 12 46  1  0
 16 47  1  0
 17 48  1  0
 18 49  1  0
 19 50  1  0
 21 51  1  0
 24 52  1  0
 25 53  1  0
 27 54  1  0
 33 55  1  0
 35 56  1  0
 36 57  1  0
M  END
> <Name>
CHEMBL2087293

> <IC50 nM>
879

> <Molecule_ChEMBL_ID>
CHEMBL2087293

> <Smiles>
O=C(O)Cc1cc(Br)c(N(Cc2ccc(Oc3ccc(Br)cc3Br)cc2)Cc2cc(F)cc(F)c2)c(Br)c1

$$$$
CHEMBL2087294
  SciTegic08162514323D

 60 63  0  0  0  0            999 V2000
    2.6110    3.0980   -0.3480 Br  0  0
    0.8050    2.5510   -0.1840 C   0  0
    0.3730    1.5590    0.7400 C   0  0
   -0.1330    3.1760   -1.0270 C   0  0
    1.2810    0.9390    1.5720 N   0  0
   -1.0060    1.2090    0.7950 C   0  0
   -1.4900    2.8260   -0.9670 C   0  0
    1.3480    1.3120    2.9920 C   0  0
    2.1910   -0.0960    1.0630 C   0  0
   -1.6970   -0.0980    1.9820 Br  0  0
   -1.9220    1.8480   -0.0610 C   0  0
   -2.4690    3.4920   -1.8650 C   0  0
    1.1860    2.7770    3.1820 C   0  0
    1.5310   -0.9530    0.0470 C   0  0
   -3.3670    4.4430   -1.1190 C   0  0
   -0.0920    3.3200    3.4140 C   0  0
    2.3090    3.6230    3.1290 C   0  0
    1.6270   -0.6270   -1.3180 C   0  0
    0.8110   -2.0920    0.4470 C   0  0
   -2.9300    5.1520   -0.2420 O   0  0
   -4.6410    4.4320   -1.4980 O   0  0
   -0.2460    4.7070    3.5920 C   0  0
    2.1540    5.0100    3.3090 C   0  0
    1.0000   -1.4410   -2.2790 C   0  0
    0.1880   -2.9040   -0.5160 C   0  0
   -1.4550    5.2210    3.8090 F   0  0
    0.8770    5.5510    3.5390 C   0  0
    3.2170    5.8090    3.2620 F   0  0
    0.2790   -2.5800   -1.8810 C   0  0
   -0.3070   -3.3420   -2.7830 O   0  0
   -0.6130   -4.5780   -2.4450 C   0  0
    0.3980   -5.5080   -2.1330 C   0  0
   -1.9630   -4.9750   -2.3950 C   0  0
    0.0570   -6.8240   -1.7710 C   0  0
    1.8280   -5.1060   -2.1800 C   0  0
   -2.3010   -6.2890   -2.0350 C   0  0
   -1.2910   -7.2150   -1.7250 C   0  0
    0.1800    3.9320   -1.7320 H   0  0
    2.3090    0.9980    3.4000 H   0  0
    0.5660    0.7870    3.5390 H   0  0
    3.0660    0.3830    0.6230 H   0  0
    2.5330   -0.7130    1.8950 H   0  0
   -2.9730    1.5920   -0.0310 H   0  0
   -3.0700    2.7360   -2.3730 H   0  0
   -1.9360    4.0250   -2.6520 H   0  0
   -0.9550    2.6720    3.4570 H   0  0
    3.2890    3.2090    2.9490 H   0  0
    2.1780    0.2460   -1.6330 H   0  0
    0.7340   -2.3480    1.4940 H   0  0
   -5.2700    5.0200   -1.0590 H   0  0
    1.0760   -1.1880   -3.3260 H   0  0
   -0.3650   -3.7770   -0.2030 H   0  0
    0.7600    6.6170    3.6760 H   0  0
   -2.7420   -4.2660   -2.6350 H   0  0
    0.8300   -7.5410   -1.5310 H   0  0
    2.4530   -5.9960   -2.2560 H   0  0
    1.9840   -4.4100   -3.0040 H   0  0
    2.0940   -4.5920   -1.2560 H   0  0
   -3.3380   -6.5880   -1.9980 H   0  0
   -1.5530   -8.2250   -1.4470 H   0  0
  1  2  1  0
  2  3  2  0
  2  4  1  0
  3  5  1  0
  3  6  1  0
  4  7  2  0
  5  8  1  0
  5  9  1  0
  6 10  1  0
  6 11  2  0
  7 12  1  0
  8 13  1  0
  9 14  1  0
 12 15  1  0
 13 16  2  0
 13 17  1  0
 14 18  2  0
 14 19  1  0
 15 20  2  0
 15 21  1  0
 16 22  1  0
 17 23  2  0
 18 24  1  0
 19 25  2  0
 22 26  1  0
 22 27  2  0
 23 28  1  0
 24 29  2  0
 29 30  1  0
 30 31  1  0
 31 32  2  0
 31 33  1  0
 32 34  1  0
 32 35  1  0
 33 36  2  0
 34 37  2  0
  7 11  1  0
 23 27  1  0
 25 29  1  0
 36 37  1  0
  4 38  1  0
  8 39  1  0
  8 40  1  0
  9 41  1  0
  9 42  1  0
 11 43  1  0
 12 44  1  0
 12 45  1  0
 16 46  1  0
 17 47  1  0
 18 48  1  0
 19 49  1  0
 21 50  1  0
 24 51  1  0
 25 52  1  0
 27 53  1  0
 33 54  1  0
 34 55  1  0
 35 56  1  0
 35 57  1  0
 35 58  1  0
 36 59  1  0
 37 60  1  0
M  END
> <Name>
CHEMBL2087294

> <IC50 nM>
1278

> <Molecule_ChEMBL_ID>
CHEMBL2087294

> <Smiles>
Cc1ccccc1Oc1ccc(CN(Cc2cc(F)cc(F)c2)c2c(Br)cc(CC(=O)O)cc2Br)cc1

$$$$
CHEMBL540936
  SciTegic08162514323D

119125  0  0  1  0            999 V2000
   -1.5140    1.5040   -0.4260 S   0  0
   -1.3730   -0.1430   -0.1250 C   0  0
   -0.1930   -0.8280   -0.1740 N   0  0
   -2.4280   -0.9490    0.1970 N   0  0
    1.0450   -0.1110   -0.5060 C   0  0
   -3.7750   -0.3730    0.2930 C   0  0
    2.2440   -1.0610   -0.5060 C   0  0
   -4.8050   -1.4410    0.6620 C   0  0
    3.7740   -0.1740   -0.9160 S   0  0
   -6.1540   -0.8650    0.7580 N   0  0
    4.9340   -1.5660   -0.8240 C   0  0
   -7.2070   -1.6720    1.0780 C   0  0
    6.3240   -1.0820   -1.1350 C   0  0
   -7.0330   -2.8520    1.2830 O   0  0
   -8.5450   -1.1040    1.1740 C   0  0
    6.5530    0.0940   -1.2930 O   0  0
    7.4280   -2.1110   -1.2400 C   0  0  1  0  0  0
   -9.6800   -1.7970    1.4860 N   0  0
   -8.8610    0.2420    0.9610 C   0  0
    7.3240   -2.6990   -2.5270 O   0  0
    8.8500   -1.5450   -1.0080 C   0  0  1  0  0  0
    7.3690   -3.2010   -0.1430 C   0  0  2  0  0  0
  -10.7090   -0.9060    1.4710 C   0  0
   -9.7830   -3.2340    1.7830 C   0  0
  -10.2340    0.3670    1.1480 C   0  0
    9.6760   -2.8340   -0.8790 C   0  0  2  0  0  0
    9.4900   -0.7070   -2.1310 C   0  0
    8.8170   -0.7720    0.3200 C   0  0
    8.8110   -3.7090    0.0290 C   0  0
    6.3790   -4.3400   -0.3930 C   0  0
  -11.0270    1.5980    1.0310 N   0  0
   11.1150   -2.5510   -0.4100 C   0  0  2  0  0  0
   10.9730   -0.3730   -1.8300 C   0  0  2  0  0  0
  -10.4180    2.7770    0.7050 C   0  0
   11.8380   -1.6170   -1.4260 C   0  0  2  0  0  0
   11.8850   -3.8730   -0.2210 C   0  0
   11.0220    0.6370   -0.8400 O   0  0
   -9.2250    2.8130    0.5140 O   0  0
  -11.2130    3.9920    0.5920 C   0  0
   11.9710   -2.3340   -2.6000 F   0  0
   13.2930   -1.2990   -0.9320 C   0  0  1  0  0  0
   13.3320   -3.6290    0.2320 C   0  0
  -10.7310    5.2290    0.2730 N   0  0
  -12.5960    4.0640    0.7910 C   0  0
   14.0490   -2.5920   -0.6090 C   0  0
   14.0300   -0.4080   -1.9300 C   0  0
   13.2870   -0.5250    0.3960 C   0  0
  -11.7910    6.0840    0.2710 C   0  0
   -9.3300    5.5820   -0.0120 C   0  0
  -12.9610    5.3930    0.5880 C   0  0
   15.3090   -2.8150   -1.0390 C   0  0
   15.2870   -0.6580   -2.3400 C   0  0
  -14.3150    5.9550    0.6870 N   0  0
   16.0180   -1.8380   -1.8710 C   0  0
  -15.3690    5.1480    1.0080 C   0  0
   17.1800   -2.0000   -2.1660 O   0  0
  -15.1950    3.9690    1.2130 O   0  0
  -16.7070    5.7170    1.1050 C   0  0
  -17.0060    7.0290    0.8950 N   0  0
  -17.8380    5.0200    1.4160 N   0  0
  -18.3360    7.1580    1.0760 C   0  0
  -18.8540    5.9100    1.4000 C   0  0
  -17.9440    3.5820    1.7150 C   0  0
   -0.1740   -1.8110    0.0160 H   0  0
   -2.2750   -1.9240    0.3630 H   0  0
    0.9320    0.3670   -1.4790 H   0  0
    1.1930    0.6970    0.2090 H   0  0
   -4.0330    0.0980   -0.6560 H   0  0
   -3.7710    0.4280    1.0310 H   0  0
    2.3540   -1.5430    0.4650 H   0  0
    2.0940   -1.8710   -1.2170 H   0  0
   -4.5490   -1.9120    1.6090 H   0  0
   -4.8110   -2.2440   -0.0780 H   0  0
   -6.2990    0.1090    0.5900 H   0  0
    4.9060   -1.9960    0.1780 H   0  0
    4.6410   -2.3320   -1.5410 H   0  0
   -8.1700    1.0330    0.6990 H   0  0
    6.4140   -3.0180   -2.6230 H   0  0
    7.0820   -2.7360    0.7890 H   0  0
  -11.7350   -1.1840    1.6840 H   0  0
   -8.8340   -3.7700    1.7400 H   0  0
  -10.4630   -3.7050    1.0720 H   0  0
  -10.1970   -3.3690    2.7810 H   0  0
    9.7290   -3.3220   -1.8440 H   0  0
    9.4490   -1.2620   -3.0700 H   0  0
    8.9120    0.2050   -2.2970 H   0  0
    9.8190   -0.5590    0.6930 H   0  0
    8.2910   -1.3420    1.0860 H   0  0
    8.2970    0.1800    0.1990 H   0  0
    8.9280   -4.7520   -0.2290 H   0  0
    9.1210   -3.6040    1.0610 H   0  0
    6.4690   -5.1060    0.3770 H   0  0
    5.3560   -3.9650   -0.4020 H   0  0
    6.5700   -4.8130   -1.3570 H   0  0
  -12.0160    1.5700    1.1890 H   0  0
   11.0760   -2.0470    0.5590 H   0  0
   11.3910    0.0840   -2.7290 H   0  0
   11.8870   -4.4490   -1.1470 H   0  0
   11.3870   -4.4980    0.5210 H   0  0
   11.4510    1.4100   -1.2400 H   0  0
   13.8770   -4.5740    0.2270 H   0  0
   13.3300   -3.2890    1.2700 H   0  0
  -13.2540    3.2460    1.0530 H   0  0
   13.5320    0.4630   -2.3300 H   0  0
   14.2460   -0.5980    0.9120 H   0  0
   12.5200   -0.9140    1.0640 H   0  0
   13.0800    0.5310    0.2270 H   0  0
  -11.6970    7.1390    0.0510 H   0  0
   -8.6370    4.7440    0.0450 H   0  0
   -8.9960    6.3420    0.6950 H   0  0
   -9.2600    6.0060   -1.0140 H   0  0
   15.8150   -3.7290   -0.7680 H   0  0
   15.7580    0.0270   -3.0310 H   0  0
  -14.4610    6.9300    0.5200 H   0  0
  -18.8710    8.0940    0.9750 H   0  0
  -19.8850    5.6560    1.6090 H   0  0
  -16.9940    3.0450    1.6720 H   0  0
  -18.6230    3.1110    1.0040 H   0  0
  -18.3580    3.4450    2.7130 H   0  0
  1  2  2  0
  2  3  1  0
  2  4  1  0
  3  5  1  0
  4  6  1  0
  5  7  1  0
  6  8  1  0
  7  9  1  0
  8 10  1  0
  9 11  1  0
 10 12  1  0
 11 13  1  0
 12 14  2  0
 12 15  1  0
 13 16  2  0
 13 17  1  0
 15 18  1  0
 15 19  2  0
 17 20  1  0
 17 21  1  0
 17 22  1  0
 18 23  1  0
 18 24  1  0
 19 25  1  0
 21 26  1  0
 21 27  1  0
 21 28  1  0
 22 29  1  0
 22 30  1  0
 25 31  1  0
 26 32  1  0
 27 33  1  0
 31 34  1  0
 32 35  1  0
 32 36  1  0
 33 37  1  0
 34 38  2  0
 34 39  1  0
 35 40  1  0
 35 41  1  0
 36 42  1  0
 39 43  1  0
 39 44  2  0
 41 45  1  0
 41 46  1  0
 41 47  1  0
 43 48  1  0
 43 49  1  0
 44 50  1  0
 45 51  2  0
 46 52  2  0
 50 53  1  0
 51 54  1  0
 53 55  1  0
 54 56  2  0
 55 57  2  0
 55 58  1  0
 58 59  2  0
 58 60  1  0
 59 61  1  0
 60 62  1  0
 60 63  1  0
 23 25  2  0
 26 29  1  0
 33 35  1  0
 42 45  1  0
 48 50  2  0
 52 54  1  0
 61 62  2  0
  3 64  1  0
  4 65  1  0
  5 66  1  0
  5 67  1  0
  6 68  1  0
  6 69  1  0
  7 70  1  0
  7 71  1  0
  8 72  1  0
  8 73  1  0
 10 74  1  0
 11 75  1  0
 11 76  1  0
 19 77  1  0
 20 78  1  0
 22 79  1  0
 23 80  1  0
 24 81  1  0
 24 82  1  0
 24 83  1  0
 26 84  1  0
 27 85  1  0
 27 86  1  0
 28 87  1  0
 28 88  1  0
 28 89  1  0
 29 90  1  0
 29 91  1  0
 30 92  1  0
 30 93  1  0
 30 94  1  0
 31 95  1  0
 32 96  1  0
 33 97  1  0
 36 98  1  0
 36 99  1  0
 37100  1  0
 42101  1  0
 42102  1  0
 44103  1  0
 46104  1  0
 47105  1  0
 47106  1  0
 47107  1  0
 48108  1  0
 49109  1  0
 49110  1  0
 49111  1  0
 51112  1  0
 52113  1  0
 53114  1  0
 61115  1  0
 62116  1  0
 63117  1  0
 63118  1  0
 63119  1  0
M  END
> <Name>
CHEMBL540936

> <IC50 nM>
14

> <Molecule_ChEMBL_ID>
CHEMBL540936

> <Smiles>
C[C@H]1C[C@@H]2[C@H]3CCC4=CC(=O)C=C[C@@]4(C)[C@]3(F)[C@H](O)C[C@@]2(C)[C@]1(O)C(=O)CSCCNC(=S)NCCNC(=O)c1cc(NC(=O)c2cc(NC(=O)c3nccn3C)cn2C)cn1C

$$$$
CHEMBL550082
  SciTegic08162514323D

 81 84  0  0  1  0            999 V2000
    7.8580    3.1880    0.2130 S   0  0
    7.7270    1.5310    0.4590 C   0  0
    8.7800    0.7230    0.7830 N   0  0
    6.5550    0.8360    0.3610 N   0  0
   10.1190    1.3090    0.9320 C   0  0
    5.3190    1.5530    0.0200 C   0  0
   11.1330    0.2520    1.3730 C   0  0
    4.1270    0.5940   -0.0410 C   0  0
   12.5800    0.7070    1.1840 C   0  0
   10.8620   -0.2730    2.7830 C   0  0
    2.6000    1.4810   -0.4630 S   0  0
    1.4510    0.0740   -0.4410 C   0  0
    0.0650    0.5570   -0.7710 C   0  0
   -0.1620    1.7310   -0.9470 O   0  0
   -1.0390   -0.4730   -0.8770 C   0  0  2  0  0  0
   -0.9350   -1.0600   -2.1640 O   0  0
   -2.4610    0.0940   -0.6460 C   0  0  2  0  0  0
   -0.9780   -1.5640    0.2190 C   0  0  1  0  0  0
   -3.2870   -1.1950   -0.5160 C   0  0  1  0  0  0
   -3.1000    0.9320   -1.7690 C   0  0
   -2.4260    0.8690    0.6840 C   0  0
   -2.4220   -2.0680    0.3950 C   0  0
    0.0100   -2.7030   -0.0330 C   0  0
   -4.7250   -0.9120   -0.0490 C   0  0  1  0  0  0
   -4.5840    1.2660   -1.4690 C   0  0  1  0  0  0
   -5.4470    0.0220   -1.0640 C   0  0  1  0  0  0
   -5.4980   -2.2340    0.1430 C   0  0
   -4.6310    2.2760   -0.4780 O   0  0
   -5.5780   -0.6950   -2.2380 F   0  0
   -6.9020    0.3420   -0.5680 C   0  0  2  0  0  0
   -6.9430   -1.9900    0.5960 C   0  0
   -7.6600   -0.9510   -0.2480 C   0  0
   -7.6390    1.2290   -1.5680 C   0  0
   -6.8980    1.1150    0.7580 C   0  0
   -8.9200   -1.1740   -0.6780 C   0  0
   -8.8970    0.9830   -1.9800 C   0  0
   -9.6270   -0.1970   -1.5100 C   0  0
  -10.7910   -0.3570   -1.8030 O   0  0
    8.6390   -0.2580    0.9160 H   0  0
    6.5470   -0.1520    0.5220 H   0  0
   10.4200    1.7600   -0.0140 H   0  0
   10.0760    2.1250    1.6500 H   0  0
    5.4510    2.0630   -0.9350 H   0  0
    5.1430    2.3380    0.7540 H   0  0
   10.9550   -0.6910    0.8590 H   0  0
    3.9980    0.0800    0.9120 H   0  0
    4.3050   -0.1930   -0.7710 H   0  0
   13.2910   -0.0640    1.4790 H   0  0
   12.7870    1.5960    1.7810 H   0  0
   12.7720    0.9570    0.1390 H   0  0
   11.5740   -1.0550    3.0470 H   0  0
   10.9280    0.5310    3.5140 H   0  0
    9.8600   -0.6990    2.8480 H   0  0
    1.4590   -0.3850    0.5470 H   0  0
    1.7720   -0.6660   -1.1740 H   0  0
   -0.0430   -1.4340   -2.2380 H   0  0
   -0.6910   -1.1000    1.1520 H   0  0
   -3.3400   -1.6840   -1.4800 H   0  0
   -3.0590    0.3770   -2.7070 H   0  0
   -2.5210    1.8440   -1.9340 H   0  0
   -1.8850    0.3220    1.4570 H   0  0
   -3.4360    1.0510    1.0490 H   0  0
   -1.9370    1.8340    0.5550 H   0  0
   -2.5390   -3.1130    0.1370 H   0  0
   -2.7300   -1.9630    1.4240 H   0  0
    1.0310   -2.3360   -0.1440 H   0  0
   -0.2520   -3.2460   -0.9390 H   0  0
    0.0000   -3.4120    0.7950 H   0  0
   -4.6860   -0.4080    0.9200 H   0  0
   -5.0000    1.7250   -2.3650 H   0  0
   -5.5000   -2.8090   -0.7850 H   0  0
   -4.9980   -2.8590    0.8830 H   0  0
   -4.9960    3.0700   -0.8980 H   0  0
   -7.4880   -2.9340    0.5900 H   0  0
   -6.9390   -1.6480    1.6330 H   0  0
   -7.1390    2.1020   -1.9690 H   0  0
   -7.8540    1.0370    1.2770 H   0  0
   -6.6970    2.1720    0.5860 H   0  0
   -6.1230    0.7330    1.4240 H   0  0
   -9.4260   -2.0880   -0.4040 H   0  0
   -9.3650    1.6660   -2.6700 H   0  0
  1  2  2  0
  2  3  1  0
  2  4  1  0
  3  5  1  0
  4  6  1  0
  5  7  1  0
  6  8  1  0
  7  9  1  0
  7 10  1  0
  8 11  1  0
 11 12  1  0
 12 13  1  0
 13 14  2  0
 13 15  1  0
 15 16  1  0
 15 17  1  0
 15 18  1  0
 17 19  1  0
 17 20  1  0
 17 21  1  0
 18 22  1  0
 18 23  1  0
 19 24  1  0
 20 25  1  0
 24 26  1  0
 24 27  1  0
 25 28  1  0
 26 29  1  0
 26 30  1  0
 27 31  1  0
 30 32  1  0
 30 33  1  0
 30 34  1  0
 32 35  2  0
 33 36  2  0
 35 37  1  0
 37 38  2  0
 19 22  1  0
 25 26  1  0
 31 32  1  0
 36 37  1  0
  3 39  1  0
  4 40  1  0
  5 41  1  0
  5 42  1  0
  6 43  1  0
  6 44  1  0
  7 45  1  0
  8 46  1  0
  8 47  1  0
  9 48  1  0
  9 49  1  0
  9 50  1  0
 10 51  1  0
 10 52  1  0
 10 53  1  0
 12 54  1  0
 12 55  1  0
 16 56  1  0
 18 57  1  0
 19 58  1  0
 20 59  1  0
 20 60  1  0
 21 61  1  0
 21 62  1  0
 21 63  1  0
 22 64  1  0
 22 65  1  0
 23 66  1  0
 23 67  1  0
 23 68  1  0
 24 69  1  0
 25 70  1  0
 27 71  1  0
 27 72  1  0
 28 73  1  0
 31 74  1  0
 31 75  1  0
 33 76  1  0
 34 77  1  0
 34 78  1  0
 34 79  1  0
 35 80  1  0
 36 81  1  0
M  END
> <Name>
CHEMBL550082

> <IC50 nM>
15

> <Molecule_ChEMBL_ID>
CHEMBL550082

> <Smiles>
CC(C)CNC(=S)NCCSCC(=O)[C@@]1(O)[C@H](C)C[C@H]2[C@@H]3CCC4=CC(=O)C=C[C@]4(C)[C@@]3(F)[C@@H](O)C[C@@]21C

$$$$
CHEMBL370259
  SciTegic08162514323D

 60 63  0  0  1  0            999 V2000
   -5.6900    4.6130   -1.5510 O   0  0
   -5.6510    3.4060   -1.4960 C   0  0
   -6.6950    2.5470   -1.5660 O   0  0
   -4.4340    2.6350   -1.3420 C   0  0
   -6.2310    1.1640   -1.4610 C   0  0
   -4.7270    1.2850   -1.3130 C   0  0
   -3.1080    3.1130   -1.2290 C   0  0
   -3.6700    0.3530   -1.1660 C   0  0
   -2.0490    2.1860   -1.0840 C   0  0
   -2.3240    0.7930   -1.0510 C   0  0
   -1.3280   -0.0940   -0.9140 N   0  0
   -0.3070    0.1560   -0.0410 C   0  0
   -0.2950    1.1760    0.6070 O   0  0
    0.7970   -0.8590    0.0900 C   0  0  1  0  0  0
    1.7890   -0.3650    0.9610 O   0  0
    0.2970   -2.1950    0.6410 C   0  0
    1.4080   -0.9880   -1.3070 C   0  0
   -0.4020   -2.0240    1.9410 C   0  0
    2.4280    0.1110   -1.6080 C   0  0
   -1.7810   -1.7540    1.9710 C   0  0
    0.3160   -2.1290    3.1460 C   0  0
    3.6500   -0.0330   -0.7740 C   0  0
    2.7700    0.2070   -3.0940 C   0  0
    2.0370    1.4610   -1.0020 C   0  0
   -2.4450   -1.5920    3.1990 C   0  0
   -0.3460   -1.9670    4.3750 C   0  0
    4.5390    1.0470   -0.6350 C   0  0
    3.9180   -1.2520   -0.1230 C   0  0
   -3.7380   -1.3400    3.2250 O   0  0
   -1.7250   -1.6990    4.4000 C   0  0
    5.6930    0.9100    0.1540 C   0  0
    5.0740   -1.3870    0.6660 C   0  0
    5.9630   -0.3070    0.8050 C   0  0
   -6.6800    0.6990   -0.5940 H   0  0
   -6.5000    0.6230   -2.3560 H   0  0
   -2.9000    4.1740   -1.2540 H   0  0
   -3.9080   -0.7010   -1.1430 H   0  0
   -1.0350    2.5530   -1.0000 H   0  0
   -1.3320   -0.9380   -1.4490 H   0  0
    2.1310   -1.1210    1.4630 H   0  0
    1.1230   -2.8950    0.7620 H   0  0
   -0.3730   -2.6780   -0.0700 H   0  0
    1.8520   -1.9730   -1.4430 H   0  0
    0.6270   -1.0100   -2.0670 H   0  0
   -2.3360   -1.6720    1.0470 H   0  0
    1.3770   -2.3340    3.1310 H   0  0
    3.5120    0.9800   -3.2910 H   0  0
    1.8790    0.4410   -3.6800 H   0  0
    3.1680   -0.7380   -3.4610 H   0  0
    2.5660    2.2730   -1.5000 H   0  0
    0.9650    1.6270   -1.0940 H   0  0
    2.2930    1.4960    0.0570 H   0  0
    0.2070   -2.0490    5.2990 H   0  0
    4.3380    1.9860   -1.1310 H   0  0
    3.2400   -2.0860   -0.2270 H   0  0
   -4.2250   -1.2700    2.3930 H   0  0
   -2.2290   -1.5740    5.3480 H   0  0
    6.3770    1.7400    0.2620 H   0  0
    5.2790   -2.3220    1.1640 H   0  0
    6.8500   -0.4120    1.4100 H   0  0
  1  2  2  0
  2  3  1  0
  2  4  1  0
  3  5  1  0
  4  6  2  0
  4  7  1  0
  6  8  1  0
  7  9  2  0
  8 10  2  0
 10 11  1  0
 11 12  1  0
 12 13  2  0
 12 14  1  0
 14 15  1  0
 14 16  1  0
 14 17  1  0
 16 18  1  0
 17 19  1  0
 18 20  2  0
 18 21  1  0
 19 22  1  0
 19 23  1  0
 19 24  1  0
 20 25  1  0
 21 26  2  0
 22 27  2  0
 22 28  1  0
 25 29  1  0
 25 30  2  0
 27 31  1  0
 28 32  2  0
 31 33  2  0
  5  6  1  0
  9 10  1  0
 26 30  1  0
 32 33  1  0
  5 34  1  0
  5 35  1  0
  7 36  1  0
  8 37  1  0
  9 38  1  0
 11 39  1  0
 15 40  1  0
 16 41  1  0
 16 42  1  0
 17 43  1  0
 17 44  1  0
 20 45  1  0
 21 46  1  0
 23 47  1  0
 23 48  1  0
 23 49  1  0
 24 50  1  0
 24 51  1  0
 24 52  1  0
 26 53  1  0
 27 54  1  0
 28 55  1  0
 29 56  1  0
 30 57  1  0
 31 58  1  0
 32 59  1  0
 33 60  1  0
M  END
> <Name>
CHEMBL370259

> <IC50 nM>
120

> <Molecule_ChEMBL_ID>
CHEMBL370259

> <Smiles>
CC(C)(CC(O)(Cc1cccc(O)c1)C(=O)Nc1ccc2c(c1)COC2=O)c1ccccc1

$$$$
CHEMBL371376
  SciTegic08162514323D

 51 55  0  0  1  0            999 V2000
   -4.7890    6.6130   -0.2010 F   0  0
   -4.3930    5.3440   -0.1660 C   0  0
   -4.9810    4.4490    0.7460 C   0  0
   -3.3870    4.8960   -1.0390 C   0  0
   -4.5630    3.1070    0.7850 C   0  0
   -2.9670    3.5550   -1.0020 C   0  0
   -3.5550    2.6560   -0.0900 C   0  0
   -3.1480    1.3590   -0.0530 N   0  0
   -3.9860    0.2910    0.0060 N   0  0
   -1.8590    0.9320   -0.0720 C   0  0
   -3.3280   -0.9010    0.0410 C   0  0
   -2.0140   -0.4420    0.0040 C   0  0
   -0.5680    1.6330   -0.1520 C   0  0
   -0.7660   -1.3090    0.0660 C   0  0
    0.5630    0.9120   -0.3340 C   0  0
    0.5250   -0.6190   -0.5020 C   0  0  1  0  0  0
    1.8970    1.6290   -0.4120 C   0  0
    1.7640   -1.2930    0.1520 C   0  0  1  0  0  0
    0.5640   -0.8460   -2.0220 C   0  0
    3.0450    0.8730    0.2620 C   0  0
    1.8520   -2.7890   -0.1800 C   0  0  1  0  0  0
    3.0840   -0.5880   -0.1880 C   0  0
    2.4840   -2.9260   -1.4320 O   0  0
    2.6430   -3.5370    0.8710 C   0  0
    4.0250   -3.7500    0.8950 C   0  0
    2.1470   -4.1580    2.0160 C   0  0
    4.4180   -4.4690    1.9880 O   0  0
    3.2560   -4.7090    2.6620 C   0  0
   -5.7540    4.7890    1.4180 H   0  0
   -2.9320    5.5800   -1.7400 H   0  0
   -5.0270    2.4340    1.4920 H   0  0
   -2.1910    3.2300   -1.6800 H   0  0
   -3.7520   -1.8950    0.0900 H   0  0
   -0.5290    2.7090   -0.0760 H   0  0
   -0.9490   -2.2580   -0.4390 H   0  0
   -0.6210   -1.5570    1.1190 H   0  0
    2.1390    1.7810   -1.4630 H   0  0
    1.8200    2.6250    0.0270 H   0  0
    1.6470   -1.2210    1.2360 H   0  0
   -0.2230   -0.2770   -2.5160 H   0  0
    1.5290   -0.5430   -2.4300 H   0  0
    0.4160   -1.8990   -2.2600 H   0  0
    2.9280    0.9180    1.3460 H   0  0
    3.9920    1.3590    0.0310 H   0  0
    0.8520   -3.2190   -0.2560 H   0  0
    3.2730   -0.6430   -1.2600 H   0  0
    3.9160   -1.0940    0.3030 H   0  0
    2.4610   -3.8670   -1.6620 H   0  0
    4.7130   -3.3930    0.1410 H   0  0
    1.1150   -4.2070    2.3380 H   0  0
    3.2150   -5.2660    3.5900 H   0  0
  1  2  1  0
  2  3  2  0
  2  4  1  0
  3  5  1  0
  4  6  2  0
  5  7  2  0
  7  8  1  0
  8  9  1  0
  8 10  1  0
  9 11  2  0
 10 12  2  0
 10 13  1  0
 12 14  1  0
 13 15  2  0
 14 16  1  0
 15 17  1  0
 16 18  1  0
 16 19  1  0
 17 20  1  0
 18 21  1  0
 18 22  1  0
 21 23  1  0
 21 24  1  0
 24 25  2  0
 24 26  1  0
 25 27  1  0
 26 28  2  0
  6  7  1  0
 11 12  1  0
 15 16  1  0
 20 22  1  0
 27 28  1  0
  3 29  1  0
  4 30  1  0
  5 31  1  0
  6 32  1  0
 11 33  1  0
 13 34  1  0
 14 35  1  0
 14 36  1  0
 17 37  1  0
 17 38  1  0
 18 39  1  0
 19 40  1  0
 19 41  1  0
 19 42  1  0
 20 43  1  0
 20 44  1  0
 21 45  1  0
 22 46  1  0
 22 47  1  0
 23 48  1  0
 25 49  1  0
 26 50  1  0
 28 51  1  0
M  END
> <Name>
CHEMBL371376

> <IC50 nM>
2.9

> <Molecule_ChEMBL_ID>
CHEMBL371376

> <Smiles>
C[C@]12Cc3cnn(-c4ccc(F)cc4)c3C=C1CCC[C@@H]2[C@@H](O)c1ccoc1

$$$$
CHEMBL717
  SciTegic08162514323D

 62 65  0  0  1  0            999 V2000
   -6.6470    0.0680    0.6080 O   0  0
   -5.5240    0.0370    0.1580 C   0  0
   -4.6040    1.1680    0.3580 C   0  0
   -5.0280   -1.1540   -0.6170 C   0  0
   -3.3070    1.1520   -0.0290 C   0  0
   -3.5310   -1.3610   -0.3750 C   0  0
   -2.6800   -0.0980   -0.6600 C   0  0  2  0  0  0
   -2.4320    2.3930    0.1290 C   0  0  2  0  0  0
   -1.2330   -0.3340   -0.1330 C   0  0  2  0  0  0
   -2.6520    0.1560   -2.1740 C   0  0
   -1.0200    2.0590    0.6230 C   0  0
   -3.0310    3.4960    1.0120 C   0  0
   -0.3750    0.9490   -0.2130 C   0  0  1  0  0  0
   -0.5200   -1.5350   -0.8050 C   0  0
    1.0330    0.6480    0.3240 C   0  0  1  0  0  0
    0.9200   -1.7440   -0.3010 C   0  0
    1.7250   -0.4530   -0.4920 C   0  0  2  0  0  0
    2.0530    1.7830    0.2740 C   0  0
    3.1210   -0.4260    0.1500 C   0  0  1  0  0  0
    1.8380   -0.0800   -1.9780 C   0  0
    3.4140    1.0780    0.2600 C   0  0
    3.0570   -0.9730    1.4650 O   0  0
    4.1780   -1.1970   -0.6030 C   0  0
    4.2300   -0.9320    2.0880 C   0  0
    5.1170   -0.6310   -1.1130 O   0  0
    4.0290   -2.6910   -0.7030 C   0  0
    5.2380   -0.4790    1.5980 O   0  0
    4.2340   -1.5020    3.4810 C   0  0
   -5.0240    2.0430    0.8320 H   0  0
   -5.2210   -0.9960   -1.6800 H   0  0
   -5.5820   -2.0470   -0.3220 H   0  0
   -3.1950   -2.1970   -0.9900 H   0  0
   -3.3870   -1.6720    0.6620 H   0  0
   -2.3240    2.8220   -0.8690 H   0  0
   -1.3150   -0.5860    0.9260 H   0  0
   -1.9860    0.9770   -2.4370 H   0  0
   -3.6490    0.4040   -2.5410 H   0  0
   -2.3130   -0.7320   -2.7070 H   0  0
   -0.4020    2.9570    0.5900 H   0  0
   -1.0610    1.7540    1.6720 H   0  0
   -3.9470    3.8870    0.5700 H   0  0
   -3.2500    3.1150    2.0080 H   0  0
   -2.3340    4.3260    1.1190 H   0  0
   -0.3070    1.2830   -1.2500 H   0  0
   -1.0740   -2.4550   -0.6210 H   0  0
   -0.5080   -1.4040   -1.8890 H   0  0
    0.9370    0.3300    1.3560 H   0  0
    1.3930   -2.5680   -0.8380 H   0  0
    0.8960   -2.0330    0.7500 H   0  0
    1.9490    2.4510    1.1150 H   0  0
    1.9280    2.3690   -0.6270 H   0  0
    0.8610    0.0860   -2.4320 H   0  0
    2.3340   -0.8750   -2.5370 H   0  0
    2.4240    0.8300   -2.1030 H   0  0
    3.9860    1.3030    1.1490 H   0  0
    3.9900    1.4280   -0.5860 H   0  0
    4.9750   -3.2150   -0.8380 H   0  0
    3.3830   -2.9430   -1.5450 H   0  0
    3.5610   -3.0780    0.2030 H   0  0
    5.2090   -1.4550    3.9670 H   0  0
    3.9240   -2.5470    3.4550 H   0  0
    3.5250   -0.9590    4.1060 H   0  0
  1  2  2  0
  2  3  1  0
  2  4  1  0
  3  5  2  0
  4  6  1  0
  5  7  1  0
  5  8  1  0
  7  9  1  0
  7 10  1  0
  8 11  1  0
  8 12  1  0
  9 13  1  0
  9 14  1  0
 13 15  1  0
 14 16  1  0
 15 17  1  0
 15 18  1  0
 17 19  1  0
 17 20  1  0
 18 21  1  0
 19 22  1  0
 19 23  1  0
 22 24  1  0
 23 25  2  0
 23 26  1  0
 24 27  2  0
 24 28  1  0
  6  7  1  0
 13 11  1  0
 16 17  1  0
 19 21  1  0
  3 29  1  0
  4 30  1  0
  4 31  1  0
  6 32  1  0
  6 33  1  0
  8 34  1  0
  9 35  1  0
 10 36  1  0
 10 37  1  0
 10 38  1  0
 11 39  1  0
 11 40  1  0
 12 41  1  0
 12 42  1  0
 12 43  1  0
 13 44  1  0
 14 45  1  0
 14 46  1  0
 15 47  1  0
 16 48  1  0
 16 49  1  0
 18 50  1  0
 18 51  1  0
 20 52  1  0
 20 53  1  0
 20 54  1  0
 21 55  1  0
 21 56  1  0
 26 57  1  0
 26 58  1  0
 26 59  1  0
 28 60  1  0
 28 61  1  0
 28 62  1  0
M  END
> <Name>
CHEMBL717

> <IC50 nM>
10

> <Molecule_ChEMBL_ID>
CHEMBL717

> <Smiles>
CC(=O)O[C@]1(C(C)=O)CC[C@H]2[C@@H]3C[C@H](C)C4=CC(=O)CC[C@]4(C)[C@H]3CC[C@@]21C

$$$$
CHEMBL253745
  SciTegic08162514323D

 51 54  0  0  1  0            999 V2000
   -0.7150    2.3340   -0.7970 Cl  0  0
   -0.1800    0.7970   -0.2030 C   0  0
   -1.1310   -0.2480   -0.0140 C   0  0
    1.2050    0.5550    0.0880 C   0  0
   -2.5590   -0.0450   -0.2460 C   0  0
   -0.7170   -1.5270    0.4080 C   0  0
    1.6270   -0.7790    0.4240 C   0  0
    2.2150    1.6720    0.0310 C   0  0  3  0  0  0
   -3.1740   -0.5330   -1.4340 C   0  0
   -3.3570    0.6410    0.7050 C   0  0
    0.6490   -1.8010    0.6170 C   0  0
    2.9490   -1.0840    0.5510 N   0  0
    3.5940    1.2770    0.5960 C   0  0
    1.7660    2.9320    0.7890 C   0  0
   -2.4590   -1.1860   -2.3630 O   0  0
   -4.5640   -0.3260   -1.6430 C   0  0
   -3.0620    1.2230    1.9320 N   0  0
   -4.6990    0.8340    0.4940 C   0  0
    1.0140   -3.1720    1.0310 C   0  0
    4.0220   -0.1330    0.1780 C   0  0
   -3.1480   -1.7030   -3.4920 C   0  0
   -5.3420    0.3610   -0.6760 C   0  0
   -4.2690    1.7660    2.4380 C   0  0
   -5.2910    1.5060    1.5080 C   0  0
    5.3190   -0.5160    0.8980 C   0  0
    4.2520   -0.2070   -1.3380 C   0  0
   -1.4410   -2.3130    0.5700 H   0  0
    2.3440    1.9300   -1.0210 H   0  0
    3.2360   -1.9860    0.8830 H   0  0
    3.5630    1.3220    1.6880 H   0  0
    4.3460    2.0080    0.2910 H   0  0
    1.3320    3.6760    0.1230 H   0  0
    2.6110    3.3930    1.3010 H   0  0
    1.0180    2.6820    1.5410 H   0  0
   -5.0350   -0.6950   -2.5430 H   0  0
   -2.1760    1.2580    2.3770 H   0  0
    0.1640   -3.8360    1.1820 H   0  0
    1.5760   -3.1310    1.9630 H   0  0
    1.6580   -3.6210    0.2730 H   0  0
   -2.4140   -2.1450   -4.1660 H   0  0
   -3.9370   -2.3650   -3.1370 H   0  0
   -3.6210   -0.8710   -4.0140 H   0  0
   -6.3980    0.5160   -0.8380 H   0  0
   -4.3500    2.2850    3.3850 H   0  0
   -6.3320    1.7890    1.5960 H   0  0
    5.2050   -0.4880    1.9820 H   0  0
    6.1250    0.1660    0.6290 H   0  0
    5.6290   -1.5230    0.6210 H   0  0
    3.3420    0.0060   -1.8980 H   0  0
    4.5980   -1.2010   -1.6250 H   0  0
    5.0120    0.5120   -1.6460 H   0  0
  1  2  1  0
  2  3  2  0
  2  4  1  0
  3  5  1  0
  3  6  1  0
  4  7  2  0
  4  8  1  0
  5  9  2  0
  5 10  1  0
  6 11  2  0
  7 12  1  0
  8 13  1  0
  8 14  1  0
  9 15  1  0
  9 16  1  0
 10 17  1  0
 10 18  2  0
 11 19  1  0
 12 20  1  0
 15 21  1  0
 16 22  2  0
 17 23  1  0
 18 24  1  0
 20 25  1  0
 20 26  1  0
  7 11  1  0
 13 20  1  0
 18 22  1  0
 23 24  2  0
  6 27  1  0
  8 28  1  0
 12 29  1  0
 13 30  1  0
 13 31  1  0
 14 32  1  0
 14 33  1  0
 14 34  1  0
 16 35  1  0
 17 36  1  0
 19 37  1  0
 19 38  1  0
 19 39  1  0
 21 40  1  0
 21 41  1  0
 21 42  1  0
 22 43  1  0
 23 44  1  0
 24 45  1  0
 25 46  1  0
 25 47  1  0
 25 48  1  0
 26 49  1  0
 26 50  1  0
 26 51  1  0
M  END
> <Name>
CHEMBL253745

> <IC50 nM>
33

> <Molecule_ChEMBL_ID>
CHEMBL253745

> <Smiles>
COc1ccc2cc[nH]c2c1-c1cc(C)c2c(c1Cl)C(C)CC(C)(C)N2

$$$$
CHEMBL404640
  SciTegic08162514323D

 51 54  0  0  1  0            999 V2000
   -0.4730    2.4380   -0.5410 Cl  0  0
    0.1030    0.8830   -0.0330 C   0  0
   -0.8150   -0.2050    0.0650 C   0  0
    1.4880    0.6700    0.2790 C   0  0
   -2.2440   -0.0350   -0.1850 C   0  0
   -0.3650   -1.4960    0.4040 C   0  0
    1.9490   -0.6680    0.5390 C   0  0
    2.4550    1.8220    0.3240 C   0  0  2  0  0  0
   -2.8670   -0.6050   -1.3220 C   0  0
   -3.0390    0.7130    0.7190 C   0  0
    1.0060   -1.7360    0.6250 C   0  0
    3.2770   -0.9350    0.6910 N   0  0
    3.8340    1.4420    0.9000 C   0  0
    1.9390    3.0120    1.1500 C   0  0
   -2.3790   -1.3750   -2.3710 N   0  0
   -4.2110   -0.4390   -1.5490 C   0  0
   -4.4280    0.8750    0.4710 C   0  0
    1.4140   -3.1210    0.9410 C   0  0
    4.3260    0.0740    0.4160 C   0  0
   -3.4730   -1.6600   -3.2250 C   0  0
   -5.0510    0.3010   -0.6740 C   0  0
   -4.6190   -1.0570   -2.6800 C   0  0
    5.6090   -0.3090    1.1620 C   0  0
    4.6050    0.1000   -1.0900 C   0  0
   -6.3650    0.5330   -0.7850 O   0  0
   -7.1190    0.6840    0.4100 C   0  0
   -1.0650   -2.3140    0.4920 H   0  0
    2.6020    2.1540   -0.7050 H   0  0
   -2.6020    1.1640    1.6000 H   0  0
    3.5820   -1.8480    0.9730 H   0  0
    3.7750    1.4300    1.9920 H   0  0
    4.5620    2.2150    0.6540 H   0  0
    1.4900    3.7790    0.5220 H   0  0
    2.7540    3.4750    1.7090 H   0  0
    1.1850    2.6860    1.8670 H   0  0
   -1.4400   -1.6720   -2.5020 H   0  0
   -5.0220    1.4470    1.1680 H   0  0
    0.5900   -3.8320    0.9830 H   0  0
    1.9180   -3.1390    1.9060 H   0  0
    2.1190   -3.4710    0.1900 H   0  0
   -3.3970   -2.2460   -4.1310 H   0  0
   -5.6210   -1.0840   -3.0900 H   0  0
    5.4530   -0.3610    2.2400 H   0  0
    6.3970    0.4220    0.9750 H   0  0
    5.9730   -1.2810    0.8300 H   0  0
    3.7110    0.3260   -1.6660 H   0  0
    4.9840   -0.8670   -1.4260 H   0  0
    5.3570    0.8520   -1.3280 H   0  0
   -8.1760    0.5740    0.1640 H   0  0
   -6.7230   -0.0100    1.1520 H   0  0
   -6.9670    1.6950    0.7850 H   0  0
  1  2  1  0
  2  3  2  0
  2  4  1  0
  3  5  1  0
  3  6  1  0
  4  7  2  0
  4  8  1  0
  5  9  2  0
  5 10  1  0
  6 11  2  0
  7 12  1  0
  8 13  1  0
  8 14  1  0
  9 15  1  0
  9 16  1  0
 10 17  2  0
 11 18  1  0
 12 19  1  0
 15 20  1  0
 16 21  2  0
 16 22  1  0
 19 23  1  0
 19 24  1  0
 21 25  1  0
 25 26  1  0
  7 11  1  0
 13 19  1  0
 17 21  1  0
 20 22  2  0
  6 27  1  0
  8 28  1  0
 10 29  1  0
 12 30  1  0
 13 31  1  0
 13 32  1  0
 14 33  1  0
 14 34  1  0
 14 35  1  0
 15 36  1  0
 17 37  1  0
 18 38  1  0
 18 39  1  0
 18 40  1  0
 20 41  1  0
 22 42  1  0
 23 43  1  0
 23 44  1  0
 23 45  1  0
 24 46  1  0
 24 47  1  0
 24 48  1  0
 26 49  1  0
 26 50  1  0
 26 51  1  0
M  END
> <Name>
CHEMBL404640

> <IC50 nM>
1000

> <Molecule_ChEMBL_ID>
CHEMBL404640

> <Smiles>
COc1ccc(-c2cc(C)c3c(c2Cl)C(C)CC(C)(C)N3)c2[nH]ccc12

$$$$
CHEMBL3927163
  SciTegic08162514323D

 41 43  0  0  0  0            999 V2000
    0.1720    3.3530    1.8730 S   0  0
   -0.5370    4.1930    2.8240 O   0  0
    1.5530    3.7540    1.6740 O   0  0
    0.1820    1.8460    2.4690 N   0  0
   -0.6450    3.4430    0.3550 C   0  0
    0.7320    0.8280    1.7380 C   0  0
   -1.7420    2.6030    0.0990 C   0  0
   -0.2090    4.3550   -0.6210 C   0  0
    0.6890   -0.4920    2.2240 C   0  0
    1.3420    1.0980    0.4980 C   0  0
   -2.4080    2.6780   -1.1370 C   0  0
   -0.8750    4.4280   -1.8580 C   0  0
    1.2540   -1.5370    1.4720 C   0  0
    1.9060    0.0490   -0.2500 C   0  0
   -1.9730    3.5900   -2.1160 C   0  0
   -3.5690    1.7910   -1.4120 C   0  0
    1.8630   -1.2700    0.2340 C   0  0
   -3.6740    1.5780   -2.7620 F   0  0
   -4.7150    2.3850   -0.9510 F   0  0
   -3.3890    0.5900   -0.7740 F   0  0
    2.3920   -2.2500   -0.4690 O   0  0
    1.7750   -3.4140   -0.4690 C   0  0
    0.3710   -3.4690   -0.4690 C   0  0
    2.5190   -4.6080   -0.4690 C   0  0
   -0.2870   -4.7110   -0.4690 C   0  0
    1.8630   -5.8500   -0.4690 C   0  0
    0.4590   -5.9030   -0.4690 C   0  0
   -0.2110    1.6620    3.3690 H   0  0
   -2.0700    1.9040    0.8550 H   0  0
    0.6350    5.0020   -0.4260 H   0  0
    0.2240   -0.7210    3.1740 H   0  0
    1.3870    2.1050    0.1070 H   0  0
   -0.5430    5.1290   -2.6100 H   0  0
    1.2190   -2.5490    1.8490 H   0  0
    2.3750    0.2620   -1.2010 H   0  0
   -2.4810    3.6500   -3.0690 H   0  0
   -0.2050   -2.5570   -0.4690 H   0  0
    3.6000   -4.5720   -0.4690 H   0  0
   -1.3670   -4.7500   -0.4690 H   0  0
    2.4370   -6.7660   -0.4690 H   0  0
   -0.0470   -6.8560   -0.4690 H   0  0
  1  2  2  0
  1  3  2  0
  1  4  1  0
  1  5  1  0
  4  6  1  0
  5  7  2  0
  5  8  1  0
  6  9  2  0
  6 10  1  0
  7 11  1  0
  8 12  2  0
  9 13  1  0
 10 14  2  0
 11 15  2  0
 11 16  1  0
 13 17  2  0
 16 18  1  0
 16 19  1  0
 16 20  1  0
 17 21  1  0
 21 22  1  0
 22 23  2  0
 22 24  1  0
 23 25  1  0
 24 26  2  0
 25 27  2  0
 12 15  1  0
 14 17  1  0
 26 27  1  0
  4 28  1  0
  7 29  1  0
  8 30  1  0
  9 31  1  0
 10 32  1  0
 12 33  1  0
 13 34  1  0
 14 35  1  0
 15 36  1  0
 23 37  1  0
 24 38  1  0
 25 39  1  0
 26 40  1  0
 27 41  1  0
M  END
> <Name>
CHEMBL3927163

> <IC50 nM>
11700

> <Molecule_ChEMBL_ID>
CHEMBL3927163

> <Smiles>
O=S(=O)(Nc1ccc(Oc2ccccc2)cc1)c1cccc(C(F)(F)F)c1

$$$$
CHEMBL4513808
  SciTegic08162514323D

 58 63  0  0  0  0            999 V2000
   -1.0780   -0.4770   -0.2560 Cl  0  0
    0.2050    0.4180    0.5100 C   0  0
    1.5650    0.2010    0.1420 C   0  0
   -0.1000    1.3770    1.5140 C   0  0
    1.8850   -0.7110   -0.8150 N   0  0
    2.5960    0.9410    0.7810 C   0  0
   -1.3890    1.6410    1.9140 N   0  0
    0.9340    2.1000    2.1350 C   0  0
    2.3730   -1.9710   -0.6230 C   0  0
    1.7830   -0.5600   -2.1600 C   0  0
    4.2700    0.7440    0.3980 Cl  0  0
    2.2680    1.8830    1.7710 C   0  0
   -1.7930    2.5980    2.9180 C   0  0
   -2.5860    1.0100    1.4080 C   0  0
    2.5820   -2.6090   -1.8070 N   0  0
    2.6560   -2.5960    0.7210 C   0  0
    2.2150   -1.7360   -2.7680 C   0  0
    1.2790    0.6990   -2.8380 C   0  0
   -3.1950    2.0100    2.4760 C   0  0
    3.0310   -4.0620    0.7890 C   0  0
    4.0760   -3.0020    1.0620 C   0  0
    2.2910   -2.0590   -4.2420 C   0  0
   -4.3140    2.9710    2.0330 C   0  0
   -4.1560    1.4590    3.5490 C   0  0
    2.5350   -3.5230   -4.5780 C   0  0
    2.9040   -1.0160   -5.1580 C   0  0
    1.4120   -1.2580   -5.1820 C   0  0
   -5.3130    1.9570    2.6460 C   0  0
    1.5610   -4.2930   -3.9980 F   0  0
    3.7620   -3.9040   -4.1020 F   0  0
    2.5000   -3.6910   -5.9400 F   0  0
   -6.4650    2.6000    3.4060 C   0  0
   -6.5780    3.7990    3.4860 O   0  0
   -7.3130    1.7360    3.9610 O   0  0
    0.7190    2.8320    2.9000 H   0  0
    3.0410    2.4530    2.2670 H   0  0
   -1.6110    3.6510    2.6990 H   0  0
   -1.4770    2.3990    3.9410 H   0  0
   -2.8380    1.1970    0.3630 H   0  0
   -2.7030   -0.0550    1.6070 H   0  0
    2.0530   -2.2150    1.5450 H   0  0
    1.9120    0.9280   -3.6960 H   0  0
    0.2310    0.5700   -3.1100 H   0  0
    1.3420    1.5370   -2.1430 H   0  0
    2.6620   -4.6410    1.6370 H   0  0
    3.1060   -4.6170   -0.1470 H   0  0
    4.4040   -2.8690    2.0920 H   0  0
    4.8500   -2.8460    0.3100 H   0  0
   -4.2870    3.9570    2.5020 H   0  0
   -4.4040    3.1450    0.9610 H   0  0
   -4.1150    0.3850    3.7260 H   0  0
   -4.0760    1.9360    4.5270 H   0  0
    3.2580   -0.0860   -4.7130 H   0  0
    3.4840   -1.3610   -6.0120 H   0  0
    0.7700   -0.4880   -4.7540 H   0  0
    0.9980   -1.7660   -6.0530 H   0  0
   -5.6520    1.2050    1.9330 H   0  0
   -8.0680    2.0720    4.4610 H   0  0
  1  2  1  0
  2  3  2  0
  2  4  1  0
  3  5  1  0
  3  6  1  0
  4  7  1  0
  4  8  2  0
  5  9  1  0
  5 10  1  0
  6 11  1  0
  6 12  2  0
  7 13  1  0
  7 14  1  0
  9 15  2  0
  9 16  1  0
 10 17  2  0
 10 18  1  0
 13 19  1  0
 16 20  1  0
 16 21  1  0
 17 22  1  0
 19 23  1  0
 19 24  1  0
 22 25  1  0
 22 26  1  0
 22 27  1  0
 23 28  1  0
 25 29  1  0
 25 30  1  0
 25 31  1  0
 28 32  1  0
 32 33  2  0
 32 34  1  0
  8 12  1  0
 14 19  1  0
 15 17  1  0
 20 21  1  0
 24 28  1  0
 26 27  1  0
  8 35  1  0
 12 36  1  0
 13 37  1  0
 13 38  1  0
 14 39  1  0
 14 40  1  0
 16 41  1  0
 18 42  1  0
 18 43  1  0
 18 44  1  0
 20 45  1  0
 20 46  1  0
 21 47  1  0
 21 48  1  0
 23 49  1  0
 23 50  1  0
 24 51  1  0
 24 52  1  0
 26 53  1  0
 26 54  1  0
 27 55  1  0
 27 56  1  0
 28 57  1  0
 34 58  1  0
M  END
> <Name>
CHEMBL4513808

> <IC50 nM>
10000

> <Molecule_ChEMBL_ID>
CHEMBL4513808

> <Smiles>
Cc1c(C2(C(F)(F)F)CC2)nc(C2CC2)n1-c1c(Cl)ccc(N2CC3(CC(C(=O)O)C3)C2)c1Cl

$$$$
CHEMBL123
  SciTegic08162514323D

 33 36  0  0  0  0            999 V2000
   -4.4240   -0.2560    0.7050 N   0  0
   -3.2380    0.3090    1.1310 C   0  0
   -4.4320   -1.1170   -0.3690 C   0  0
   -2.0040    0.0210    0.4850 C   0  0
   -3.2440   -1.4490   -1.0600 C   0  0
   -2.0080   -0.8790   -0.6390 C   0  0
   -0.7810    0.6090    0.9340 C   0  0
   -0.7910   -1.1910   -1.3120 C   0  0
    0.4160    0.2710    0.2400 C   0  0
   -0.7720    1.5370    2.0820 C   0  0
    0.4080   -0.6020   -0.8480 C   0  0
   -0.7540   -2.1080   -2.4690 C   0  0
    1.6970    0.6720    0.4490 C   0  0
    1.7260   -0.7460   -1.3280 N   0  0
    2.5170    0.0620   -0.4960 C   0  0
    2.2360    1.5530    1.4260 C   0  0
    3.9120    0.2970   -0.5140 C   0  0
    3.6350    1.7950    1.4180 C   0  0
    4.4690    1.1700    0.4530 C   0  0
   -3.2830    0.9780    1.9770 H   0  0
   -5.3690   -1.5510   -0.6870 H   0  0
   -3.3010   -2.1310   -1.8980 H   0  0
   -1.7580    1.7340    2.5060 H   0  0
   -0.3440    2.4900    1.7770 H   0  0
   -0.1450    1.1270    2.8750 H   0  0
   -0.8990   -3.1330   -2.1270 H   0  0
   -1.5000   -1.7990   -3.2010 H   0  0
    0.2240   -2.0510   -2.9470 H   0  0
    2.0310   -1.3010   -2.0920 H   0  0
    1.6330    2.0430    2.1700 H   0  0
    4.5450   -0.1800   -1.2500 H   0  0
    4.0660    2.4610    2.1510 H   0  0
    5.5310    1.3630    0.4570 H   0  0
  1  2  2  0
  1  3  1  0
  2  4  1  0
  3  5  2  0
  4  6  1  0
  4  7  2  0
  6  8  2  0
  7  9  1  0
  7 10  1  0
  8 11  1  0
  8 12  1  0
  9 13  1  0
 11 14  1  0
 13 15  1  0
 13 16  2  0
 15 17  2  0
 16 18  1  0
 17 19  1  0
  5  6  1  0
  9 11  2  0
 14 15  1  0
 18 19  2  0
  2 20  1  0
  3 21  1  0
  5 22  1  0
 10 23  1  0
 10 24  1  0
 10 25  1  0
 12 26  1  0
 12 27  1  0
 12 28  1  0
 14 29  1  0
 16 30  1  0
 17 31  1  0
 18 32  1  0
 19 33  1  0
M  END
> <Name>
CHEMBL123

> <IC50 nM>
90000

> <Molecule_ChEMBL_ID>
CHEMBL123

> <Smiles>
Cc1c2ccncc2c(C)c2c1[nH]c1ccccc12

$$$$
CHEMBL302362
  SciTegic08162514323D

 54 58  0  0  0  0            999 V2000
    1.9550    1.0760   -0.9180 O   0  0
    2.1990    2.3590   -0.5720 C   0  0
    0.9040    0.4080   -0.4160 C   0  0
    1.3200    3.0780    0.3010 C   0  0
    3.3590    2.9840   -1.0880 C   0  0
   -0.2230    1.1090    0.2890 C   0  0
    0.9530   -0.9410   -0.5180 C   0  0
    0.0820    2.4100    0.7850 C   0  0
    1.6580    4.4140    0.6660 C   0  0
    3.6740    4.3110   -0.7230 C   0  0
   -1.5350    0.5640    0.4960 C   0  0
    2.0410   -1.6520   -1.2600 C   0  0
   -0.7990    3.0160    1.7210 C   0  0
    2.8300    5.0210    0.1560 C   0  0
   -2.3560    1.1250    1.5190 C   0  0
   -2.1150   -0.5410   -0.3440 C   0  0
    2.5570   -2.8770   -0.7870 C   0  0
    2.5550   -1.0880   -2.4420 C   0  0
   -1.9790    2.3520    2.1210 C   0  0
   -3.4980    0.5060    1.9120 N   0  0
   -3.2110   -1.1930    0.0940 C   0  0
   -1.5640   -0.9280   -1.6950 C   0  0
    3.5780   -3.5290   -1.5000 C   0  0
    2.0290   -3.4960    0.4590 C   0  0
    3.5760   -1.7400   -3.1510 C   0  0
   -3.8910   -0.8400    1.4040 C   0  0
    4.0900   -2.9610   -2.6800 C   0  0
   -5.4040   -0.8610    1.1850 C   0  0
   -3.5120   -1.8930    2.4490 C   0  0
    4.0100    2.4450   -1.7600 H   0  0
    0.2090   -1.5700   -0.0530 H   0  0
    1.0450    5.0020    1.3300 H   0  0
    4.5630    4.7830   -1.1170 H   0  0
   -0.6020    3.9800    2.1580 H   0  0
    3.0780    6.0330    0.4390 H   0  0
    2.1680   -0.1490   -2.8130 H   0  0
   -2.5940    2.8030    2.8890 H   0  0
   -4.1040    0.9450    2.5800 H   0  0
   -3.6270   -1.9900   -0.5080 H   0  0
   -2.3830   -1.0470   -2.4060 H   0  0
   -0.8500   -0.1780   -2.0330 H   0  0
   -1.0410   -1.8810   -1.6250 H   0  0
    3.9790   -4.4670   -1.1450 H   0  0
    1.9530   -2.8090    1.3030 H   0  0
    2.6800   -4.3180    0.7580 H   0  0
    1.0370   -3.9040    0.2710 H   0  0
    3.9690   -1.3050   -4.0590 H   0  0
    4.8750   -3.4630   -3.2250 H   0  0
   -5.7190   -0.1250    0.4450 H   0  0
   -5.9320   -0.6450    2.1130 H   0  0
   -5.7310   -1.8420    0.8380 H   0  0
   -2.4380   -1.9120    2.6370 H   0  0
   -3.8110   -2.8870    2.1210 H   0  0
   -4.0120   -1.6920    3.3960 H   0  0
  1  2  1  0
  1  3  1  0
  2  4  2  0
  2  5  1  0
  3  6  1  0
  3  7  2  0
  4  8  1  0
  4  9  1  0
  5 10  2  0
  6 11  2  0
  7 12  1  0
  8 13  2  0
  9 14  2  0
 11 15  1  0
 11 16  1  0
 12 17  2  0
 12 18  1  0
 13 19  1  0
 15 20  1  0
 16 21  2  0
 16 22  1  0
 17 23  1  0
 17 24  1  0
 18 25  2  0
 20 26  1  0
 23 27  2  0
 26 28  1  0
 26 29  1  0
  6  8  1  0
 10 14  1  0
 15 19  2  0
 21 26  1  0
 25 27  1  0
  5 30  1  0
  7 31  1  0
  9 32  1  0
 10 33  1  0
 13 34  1  0
 14 35  1  0
 18 36  1  0
 19 37  1  0
 20 38  1  0
 21 39  1  0
 22 40  1  0
 22 41  1  0
 22 42  1  0
 23 43  1  0
 24 44  1  0
 24 45  1  0
 24 46  1  0
 25 47  1  0
 27 48  1  0
 28 49  1  0
 28 50  1  0
 28 51  1  0
 29 52  1  0
 29 53  1  0
 29 54  1  0
M  END
> <Name>
CHEMBL302362

> <IC50 nM>
1050

> <Molecule_ChEMBL_ID>
CHEMBL302362

> <Smiles>
CC1=CC(C)(C)Nc2ccc3c(c21)/C(=C/c1ccccc1C)Oc1ccccc1-3

$$$$
CHEMBL402063
  SciTegic08162514323D

 51 54  0  0  1  0            999 V2000
   -5.7230   -0.2540   -1.7810 O   0  0
   -4.8030   -0.4220   -1.0140 C   0  0
   -3.7970   -1.4630   -1.2600 C   0  0
   -4.6370    0.4180    0.2230 C   0  0
   -2.6130   -1.5000   -0.6070 C   0  0
   -3.1620    0.7910    0.4060 C   0  0
   -2.1880   -0.4220    0.3930 C   0  0  2  0  0  0
   -1.6390   -2.6310   -0.8630 C   0  0
   -0.7730    0.0820   -0.0040 C   0  0  2  0  0  0
   -2.1560   -1.0760    1.7810 C   0  0
   -0.2600   -2.0940   -1.2500 C   0  0
    0.2520   -1.0550   -0.2380 C   0  0  1  0  0  0
   -0.1930    1.1430    0.9630 C   0  0
    1.5100   -0.3630   -0.7850 C   0  0  1  0  0  0
    1.1370    1.7460    0.4650 C   0  0
    2.1640    0.6270    0.2130 C   0  0  2  0  0  0
    2.6880   -1.2090   -1.2850 C   0  0
    3.4450    0.9610   -0.5230 C   0  0
    2.5290   -0.0880    1.5160 C   0  0
    3.7770   -0.1780   -1.3790 C   0  0
    4.1700    2.0960   -0.4380 C   0  0
    4.7680   -0.2730   -2.0660 O   0  0
    3.8090    3.2480    0.4630 C   0  0
   -4.0290   -2.2290   -1.9880 H   0  0
   -4.9960   -0.1460    1.0840 H   0  0
   -5.2520    1.3160    0.1500 H   0  0
   -2.8950    1.4770   -0.4000 H   0  0
   -3.0490    1.3650    1.3260 H   0  0
   -2.0060   -3.2910   -1.6520 H   0  0
   -1.5610   -3.2480    0.0350 H   0  0
   -0.9060    0.5880   -0.9630 H   0  0
   -3.1210   -1.5020    2.0510 H   0  0
   -1.8890   -0.3460    2.5450 H   0  0
   -1.4160   -1.8770    1.8130 H   0  0
    0.4450   -2.9220   -1.3240 H   0  0
   -0.3220   -1.6540   -2.2460 H   0  0
    0.4800   -1.5550    0.7030 H   0  0
   -0.9040    1.9590    1.1050 H   0  0
   -0.0450    0.6970    1.9490 H   0  0
    1.1950    0.2070   -1.6520 H   0  0
    1.4980    2.4550    1.2090 H   0  0
    0.9610    2.3140   -0.4510 H   0  0
    2.4860   -1.6640   -2.2460 H   0  0
    2.9490   -1.9800   -0.5780 H   0  0
    3.1970   -0.9340    1.3420 H   0  0
    1.6350   -0.4670    2.0120 H   0  0
    3.0290    0.5940    2.2050 H   0  0
    5.0590    2.1910   -1.0410 H   0  0
    4.6700    3.9060    0.5860 H   0  0
    2.9510    3.7830    0.0530 H   0  0
    3.5310    2.8770    1.4470 H   0  0
  1  2  2  0
  2  3  1  0
  2  4  1  0
  3  5  2  0
  4  6  1  0
  5  7  1  0
  5  8  1  0
  7  9  1  0
  7 10  1  0
  8 11  1  0
  9 12  1  0
  9 13  1  0
 12 14  1  0
 13 15  1  0
 14 16  1  0
 14 17  1  0
 16 18  1  0
 16 19  1  0
 17 20  1  0
 18 21  2  0
 20 22  2  0
 21 23  1  0
  6  7  1  0
 12 11  1  0
 15 16  1  0
 18 20  1  0
  3 24  1  0
  4 25  1  0
  4 26  1  0
  6 27  1  0
  6 28  1  0
  8 29  1  0
  8 30  1  0
  9 31  1  0
 10 32  1  0
 10 33  1  0
 10 34  1  0
 11 35  1  0
 11 36  1  0
 12 37  1  0
 13 38  1  0
 13 39  1  0
 14 40  1  0
 15 41  1  0
 15 42  1  0
 17 43  1  0
 17 44  1  0
 19 45  1  0
 19 46  1  0
 19 47  1  0
 21 48  1  0
 23 49  1  0
 23 50  1  0
 23 51  1  0
M  END
> <Name>
CHEMBL402063

> <IC50 nM>
1740

> <Molecule_ChEMBL_ID>
CHEMBL402063

> <Smiles>
C/C=C1/C(=O)C[C@H]2[C@@H]3CCC4=CC(=O)CC[C@]4(C)[C@H]3CC[C@]12C

$$$$
CHEMBL1676
  SciTegic08162514323D

 66 70  0  0  1  0            999 V2000
   -4.7440    0.2600   -0.4880 S   0  0
   -3.3280    0.4570    0.4100 C   0  0
   -5.8850    1.2720    0.3710 C   0  0
   -3.2420    1.1620    1.3890 O   0  0
   -2.1350   -0.3200   -0.0960 C   0  0  2  0  0  0
   -6.1540    0.7190    1.5960 F   0  0
   -1.9040   -1.3830    0.8260 O   0  0
   -0.8500    0.5120   -0.2520 C   0  0  2  0  0  0
   -2.3300   -0.8960   -1.5140 C   0  0  1  0  0  0
   -3.0180   -1.7680    1.4450 C   0  0
    0.0140   -0.4900   -1.0270 C   0  0  1  0  0  0
   -0.1090    0.8670    1.0490 C   0  0
   -1.1720    1.7600   -1.0900 C   0  0
   -0.9280   -0.9510   -2.1410 C   0  0
   -3.0100   -2.2640   -1.5160 C   0  0
   -4.0740   -1.9390    0.8850 O   0  0
   -2.9080   -1.9780    2.8810 C   0  0
    1.3610    0.1230   -1.4450 C   0  0  1  0  0  0
    1.3050    1.4380    0.7830 C   0  0  1  0  0  0
   -1.6950   -1.7730    3.4670 O   0  0
   -3.8990   -2.3750    3.7830 C   0  0
    2.1600    0.5450   -0.1740 C   0  0  1  0  0  0
    2.1410   -0.8930   -2.3010 C   0  0
    1.1800    2.7540    0.2830 O   0  0
   -1.9280   -2.0510    4.7830 C   0  0
   -3.2580   -2.4220    5.0220 C   0  0
    2.4020   -0.6050    0.5530 F   0  0
    3.5660    1.1150   -0.5600 C   0  0  2  0  0  0
    3.5410   -0.3810   -2.6740 C   0  0  1  0  0  0
    4.2950    0.0920   -1.4390 C   0  0
    4.3570    1.5100    0.6840 C   0  0
    3.4510    2.3890   -1.4120 C   0  0
    4.2010   -1.3870   -3.3400 F   0  0
    5.5270   -0.3690   -1.1370 C   0  0
    5.5840    1.0270    0.9610 C   0  0
    6.2420    0.0720    0.0660 C   0  0
    7.3500   -0.3440    0.3150 O   0  0
   -6.8070    1.3500   -0.2050 H   0  0
   -5.4570    2.2660    0.5080 H   0  0
   -2.9320   -0.2210   -2.1020 H   0  0
    0.2190   -1.3510   -0.4040 H   0  0
   -0.7030    1.5650    1.6430 H   0  0
   -0.0060   -0.0250    1.6660 H   0  0
   -0.2720    2.2150   -1.5040 H   0  0
   -1.6760    2.5120   -0.4800 H   0  0
   -1.8300    1.5080   -1.9200 H   0  0
   -0.6600   -1.9350   -2.4960 H   0  0
   -0.8730   -0.2810   -2.9860 H   0  0
   -2.8790   -2.7580   -2.4780 H   0  0
   -2.5980   -2.9000   -0.7300 H   0  0
   -4.0800   -2.1620   -1.3360 H   0  0
    1.1780    1.0060   -2.0570 H   0  0
    1.8110    1.5390    1.7420 H   0  0
   -4.9360   -2.6000    3.5700 H   0  0
    1.5860   -1.1170   -3.2130 H   0  0
    2.2320   -1.8360   -1.7580 H   0  0
    1.7130    3.3300    0.8540 H   0  0
   -1.1640   -1.9860    5.5470 H   0  0
   -3.6990   -2.6890    5.9730 H   0  0
    3.4390    0.4610   -3.3590 H   0  0
    3.9260    2.2130    1.3810 H   0  0
    4.3690    2.5940   -1.9630 H   0  0
    3.2400    3.2540   -0.7830 H   0  0
    2.6430    2.2970   -2.1350 H   0  0
    6.0220   -1.0820   -1.7810 H   0  0
    6.0880    1.3500    1.8590 H   0  0
  1  2  1  0
  1  3  1  0
  2  4  2  0
  2  5  1  0
  3  6  1  0
  5  7  1  0
  5  8  1  0
  5  9  1  0
  7 10  1  0
  8 11  1  0
  8 12  1  0
  8 13  1  0
  9 14  1  0
  9 15  1  0
 10 16  2  0
 10 17  1  0
 11 18  1  0
 12 19  1  0
 17 20  1  0
 17 21  2  0
 18 22  1  0
 18 23  1  0
 19 24  1  0
 20 25  1  0
 21 26  1  0
 22 27  1  0
 22 28  1  0
 23 29  1  0
 28 30  1  0
 28 31  1  0
 28 32  1  0
 29 33  1  0
 30 34  2  0
 31 35  2  0
 34 36  1  0
 36 37  2  0
 11 14  1  0
 19 22  1  0
 25 26  2  0
 29 30  1  0
 35 36  1  0
  3 38  1  0
  3 39  1  0
  9 40  1  0
 11 41  1  0
 12 42  1  0
 12 43  1  0
 13 44  1  0
 13 45  1  0
 13 46  1  0
 14 47  1  0
 14 48  1  0
 15 49  1  0
 15 50  1  0
 15 51  1  0
 18 52  1  0
 19 53  1  0
 21 54  1  0
 23 55  1  0
 23 56  1  0
 24 57  1  0
 25 58  1  0
 26 59  1  0
 29 60  1  0
 31 61  1  0
 32 62  1  0
 32 63  1  0
 32 64  1  0
 34 65  1  0
 35 66  1  0
M  END
> <Name>
CHEMBL1676

> <IC50 nM>
0.8

> <Molecule_ChEMBL_ID>
CHEMBL1676

> <Smiles>
C[C@@H]1C[C@H]2[C@@H]3C[C@H](F)C4=CC(=O)C=C[C@]4(C)[C@@]3(F)[C@@H](O)C[C@]2(C)[C@@]1(OC(=O)c1ccco1)C(=O)SCF

$$$$
CHEMBL2181927
  SciTegic08162514323D

 50 52  0  0  1  0            999 V2000
    3.6190    0.6780   -0.0270 O   0  0
    2.9890    0.6800   -1.0590 C   0  0
    3.5840    0.3070   -2.2310 N   0  0
    1.5710    1.0840   -1.0660 C   0  0
    1.1860    2.3110   -1.4940 C   0  0
    0.5350    0.0800   -0.5740 C   0  0  2  0  0  0
   -0.1400    2.6800   -1.5780 N   0  0
    2.2310    3.3220   -1.9000 C   0  0
   -0.8770    0.5100   -0.8150 C   0  0
    0.7290   -0.1820    0.8750 C   0  0
   -1.1620    1.8300   -1.2870 C   0  0
   -1.9630   -0.3850   -0.5820 C   0  0
    1.1410   -1.4530    1.3180 C   0  0
    0.4960    0.8520    1.8010 C   0  0
   -2.5270    2.2230   -1.4550 C   0  0
   -1.7220   -1.6410   -0.1780 O   0  0
   -3.2690    0.0100   -0.7600 N   0  0
    1.3580   -2.4240    0.4530 O   0  0
    1.3190   -1.6840    2.6950 C   0  0
    0.6740    0.6210    3.1740 C   0  0
   -3.5550    1.2870   -1.1800 C   0  0
   -2.9060    3.5720   -1.9140 C   0  0
   -2.8360   -2.4960    0.0390 C   0  0
    1.7440   -3.6930    0.9590 C   0  0
    1.0860   -0.6460    3.6150 C   0  0
   -2.3440   -3.8710    0.4900 C   0  0
    1.2740   -0.8980    5.0220 C   0  0
    1.4260   -1.1000    6.1540 N   0  0
    4.5430    0.0250   -2.2680 H   0  0
    3.0610    0.3070   -3.0820 H   0  0
    0.6960   -0.8590   -1.1060 H   0  0
   -0.3400    3.6110   -1.8890 H   0  0
    2.8260    3.6920   -1.0660 H   0  0
    1.7500    4.1800   -2.3730 H   0  0
    2.9120    2.8810   -2.6270 H   0  0
    0.1800    1.8260    1.4630 H   0  0
    1.6350   -2.6640    3.0230 H   0  0
    0.4940    1.4200    3.8750 H   0  0
   -4.5900    1.5760   -1.2990 H   0  0
   -3.9820    3.7360   -1.9860 H   0  0
   -2.4760    3.7580   -2.8990 H   0  0
   -2.5020    4.3170   -1.2290 H   0  0
   -3.4690   -2.0430    0.8050 H   0  0
   -3.3940   -2.5720   -0.8930 H   0  0
    1.0630   -4.1640    1.6660 H   0  0
    2.7110   -3.5860    1.4490 H   0  0
    1.8710   -4.3710    0.1150 H   0  0
   -3.1830   -4.5410    0.6720 H   0  0
   -1.6930   -4.3120   -0.2640 H   0  0
   -1.7730   -3.7910    1.4160 H   0  0
  1  2  2  0
  2  3  1  0
  2  4  1  0
  4  5  2  0
  4  6  1  0
  5  7  1  0
  5  8  1  0
  6  9  1  0
  6 10  1  0
  7 11  1  0
  9 12  2  0
 10 13  2  0
 10 14  1  0
 11 15  2  0
 12 16  1  0
 12 17  1  0
 13 18  1  0
 13 19  1  0
 14 20  2  0
 15 21  1  0
 15 22  1  0
 16 23  1  0
 18 24  1  0
 19 25  2  0
 23 26  1  0
 25 27  1  0
 27 28  3  0
  9 11  1  0
 17 21  2  0
 20 25  1  0
  3 29  1  0
  3 30  1  0
  6 31  1  0
  7 32  1  0
  8 33  1  0
  8 34  1  0
  8 35  1  0
 14 36  1  0
 19 37  1  0
 20 38  1  0
 21 39  1  0
 22 40  1  0
 22 41  1  0
 22 42  1  0
 23 43  1  0
 23 44  1  0
 24 45  1  0
 24 46  1  0
 24 47  1  0
 26 48  1  0
 26 49  1  0
 26 50  1  0
M  END
> <Name>
CHEMBL2181927

> <IC50 nM>
10000

> <Molecule_ChEMBL_ID>
CHEMBL2181927

> <Smiles>
CCOc1ncc(C)c2c1[C@H](c1ccc(C#N)cc1OC)C(C(N)=O)=C(C)N2

$$$$
CHEMBL5433271
  SciTegic08162514323D

 81 87  0  0  1  0            999 V2000
   -6.7400   -1.0160    0.8850 O   0  0
   -5.9820   -1.0430   -0.0570 C   0  0
   -5.6600    0.1800   -0.7990 C   0  0
   -5.3610   -2.3030   -0.4850 C   0  0
   -4.7730    0.1700   -1.8150 C   0  0
   -4.4900   -2.3400   -1.5120 C   0  0
   -4.0570   -1.0980   -2.2830 C   0  0  2  0  0  0
   -4.4060    1.4410   -2.5430 C   0  0
   -2.5250   -0.8460   -2.1150 C   0  0  1  0  0  0
   -4.4470   -1.3300   -3.7500 C   0  0
   -2.9000    1.6950   -2.3870 C   0  0
   -1.5980   -2.0430   -2.4770 C   0  0  1  0  0  0
   -2.0490    0.4730   -2.7970 C   0  0  1  0  0  0
   -1.7540   -2.4100   -3.8340 O   0  0
   -0.1070   -1.7420   -2.1940 C   0  0
   -0.5920    0.7050   -2.3520 C   0  0  1  0  0  0
    0.3630   -0.4080   -2.8150 C   0  0  1  0  0  0
    0.1230    1.9650   -2.8480 C   0  0
    1.7360    0.1520   -2.3610 C   0  0  1  0  0  0
    0.3770   -0.4860   -4.3500 C   0  0
    1.5820    1.6840   -2.4590 C   0  0  2  0  0  0
    1.9380   -0.0370   -0.9730 O   0  0
    2.9430   -0.3980   -3.0880 C   0  0
    1.8170    2.1270   -1.1330 O   0  0
    2.4790    1.1270   -0.3990 C   0  0  1  0  0  0
    3.6080    0.3050   -3.8150 O   0  0
    3.2970   -1.8480   -2.8790 C   0  0
    2.1580    1.2110    1.0490 C   0  0
    2.8460   -2.6040   -3.9810 O   0  0
    3.1150    1.7050    1.9530 C   0  0
    0.9000    0.7970    1.5170 C   0  0
    2.8150    1.7850    3.3220 C   0  0
    0.5980    0.8770    2.8890 C   0  0
    1.5550    1.3710    3.7930 C   0  0
    1.2360    1.4550    5.2420 C   0  0
    2.3170    0.8010    6.0250 C   0  0
    2.9280    1.4860    7.0920 C   0  0
    2.7250   -0.5060    5.7030 C   0  0
    3.9510    0.8650    7.8340 C   0  0
    3.7460   -1.1250    6.4430 C   0  0
    4.5470    1.5310    8.8710 N   0  0
    4.3600   -0.4410    7.5080 C   0  0
   -6.1430    1.1030   -0.5140 H   0  0
   -5.6110   -3.2170    0.0310 H   0  0
   -4.0840   -3.2990   -1.7930 H   0  0
   -4.9750    2.2890   -2.1600 H   0  0
   -4.6660    1.3460   -3.6000 H   0  0
   -2.3810   -0.6970   -1.0410 H   0  0
   -5.5200   -1.2050   -3.9080 H   0  0
   -4.1780   -2.3380   -4.0650 H   0  0
   -3.9300   -0.6270   -4.4030 H   0  0
   -2.6190    2.5620   -2.9860 H   0  0
   -2.6970    1.9610   -1.3480 H   0  0
   -1.8750   -2.9200   -1.8910 H   0  0
   -2.1030    0.3670   -3.8810 H   0  0
   -1.2850   -3.2500   -3.9610 H   0  0
    0.0180   -1.7050   -1.1110 H   0  0
    0.5270   -2.5650   -2.5350 H   0  0
   -0.5920    0.7380   -1.2700 H   0  0
   -0.2710    2.8690   -2.4040 H   0  0
    0.0250    2.0680   -3.9180 H   0  0
   -0.6370   -0.4670   -4.7460 H   0  0
    0.9400    0.3460   -4.7720 H   0  0
    0.8500   -1.4100   -4.6840 H   0  0
    2.2930    2.1520   -3.1250 H   0  0
    3.5410    1.1700   -0.5920 H   0  0
    2.8010   -2.2230   -1.9850 H   0  0
    4.3770   -1.9590   -2.8110 H   0  0
    3.0880   -3.5270   -3.8130 H   0  0
    4.0840    2.0250    1.6000 H   0  0
    0.1600    0.4160    0.8280 H   0  0
    3.5530    2.1660    4.0120 H   0  0
   -0.3710    0.5570    3.2420 H   0  0
    0.2890    0.9510    5.4360 H   0  0
    1.1560    2.5020    5.5370 H   0  0
    2.6040    2.4900    7.3300 H   0  0
    2.2580   -1.0370    4.8870 H   0  0
    4.0590   -2.1290    6.1930 H   0  0
    4.2810    2.4610    9.1290 H   0  0
    5.2740    1.0880    9.3980 H   0  0
    5.1430   -0.9360    8.0660 H   0  0
  1  2  2  0
  2  3  1  0
  2  4  1  0
  3  5  2  0
  4  6  2  0
  5  7  1  0
  5  8  1  0
  7  9  1  0
  7 10  1  0
  8 11  1  0
  9 12  1  0
  9 13  1  0
 12 14  1  0
 12 15  1  0
 13 16  1  0
 15 17  1  0
 16 18  1  0
 17 19  1  0
 17 20  1  0
 18 21  1  0
 19 22  1  0
 19 23  1  0
 21 24  1  0
 22 25  1  0
 23 26  2  0
 23 27  1  0
 25 28  1  0
 27 29  1  0
 28 30  2  0
 28 31  1  0
 30 32  1  0
 31 33  2  0
 32 34  2  0
 34 35  1  0
 35 36  1  0
 36 37  2  0
 36 38  1  0
 37 39  1  0
 38 40  2  0
 39 41  1  0
 39 42  2  0
  6  7  1  0
 13 11  1  0
 16 17  1  0
 19 21  1  0
 24 25  1  0
 33 34  1  0
 40 42  1  0
  3 43  1  0
  4 44  1  0
  6 45  1  0
  8 46  1  0
  8 47  1  0
  9 48  1  0
 10 49  1  0
 10 50  1  0
 10 51  1  0
 11 52  1  0
 11 53  1  0
 12 54  1  0
 13 55  1  0
 14 56  1  0
 15 57  1  0
 15 58  1  0
 16 59  1  0
 18 60  1  0
 18 61  1  0
 20 62  1  0
 20 63  1  0
 20 64  1  0
 21 65  1  0
 25 66  1  0
 27 67  1  0
 27 68  1  0
 29 69  1  0
 30 70  1  0
 31 71  1  0
 32 72  1  0
 33 73  1  0
 35 74  1  0
 35 75  1  0
 37 76  1  0
 38 77  1  0
 40 78  1  0
 41 79  1  0
 41 80  1  0
 42 81  1  0
M  END
> <Name>
CHEMBL5433271

> <IC50 nM>
3

> <Molecule_ChEMBL_ID>
CHEMBL5433271

> <Smiles>
C[C@]12C=CC(=O)C=C1CC[C@@H]1[C@@H]2[C@@H](O)C[C@@]2(C)[C@H]1C[C@H]1O[C@@H](c3ccc(Cc4cccc(N)c4)cc3)O[C@]12C(=O)CO

$$$$
CHEMBL5417330
  SciTegic08162514323D

 81 87  0  0  1  0            999 V2000
   -8.2230   -1.2420    2.8790 O   0  0
   -7.4240   -1.2210    1.9710 C   0  0
   -7.0060    0.0470    1.3670 C   0  0
   -6.8400   -2.4630    1.4550 C   0  0
   -6.0960    0.0860    0.3710 C   0  0
   -5.9710   -2.4530    0.4280 C   0  0
   -5.5260   -1.1780   -0.2790 C   0  0  2  0  0  0
   -5.5690    1.4340   -0.0900 C   0  0
   -3.9850   -0.9730   -0.2270 C   0  0  1  0  0  0
   -6.0280   -1.2990   -1.7230 C   0  0
   -4.5590    1.3540   -1.2440 C   0  0
   -3.0680   -2.2030   -0.4180 C   0  0  1  0  0  0
   -3.5120    0.2190   -1.1170 C   0  0  1  0  0  0
   -3.1560   -2.6890   -1.7420 O   0  0
   -1.6000   -1.8520   -0.0720 C   0  0
   -2.1450    0.6090   -0.5310 C   0  0  1  0  0  0
   -1.1190   -0.5330   -0.7230 C   0  0  1  0  0  0
   -1.3890    1.8110   -1.1000 C   0  0
    0.1600    0.1290   -0.1410 C   0  0  1  0  0  0
   -0.8770   -0.7680   -2.2250 C   0  0
   -0.0040    1.6310   -0.4610 C   0  0  2  0  0  0
    0.1580    0.1210    1.2810 O   0  0
    1.4630   -0.4840   -0.6090 C   0  0
    0.0230    2.2600    0.8130 O   0  0
    0.5390    1.3830    1.7870 C   0  0  2  0  0  0
    2.2030    0.1170   -1.3520 O   0  0
    1.8110   -1.8670   -0.1230 C   0  0
    2.0190    1.5140    1.8870 C   0  0
    1.8220   -2.7600   -1.2130 O   0  0
    2.6430    2.7340    1.5760 C   0  0
    2.7970    0.4140    2.2930 C   0  0
    4.0390    2.8580    1.6700 C   0  0
    4.1950    0.5370    2.3890 C   0  0
    4.8180    1.7600    2.0760 C   0  0
    6.2950    1.8890    2.1780 C   0  0
    6.9360    1.1130    1.0840 C   0  0
    6.7640    1.5100   -0.2560 C   0  0
    7.7150   -0.0180    1.3870 C   0  0
    7.3710    0.7750   -1.2930 C   0  0
    8.3220   -0.7500    0.3540 C   0  0
    7.2030    1.1580   -2.5960 N   0  0
    8.1500   -0.3570   -0.9840 C   0  0
   -7.4300    0.9670    1.7480 H   0  0
   -7.1130   -3.4000    1.9120 H   0  0
   -5.5800   -3.4020    0.0920 H   0  0
   -5.0820    1.9180    0.7580 H   0  0
   -6.4010    2.0780   -0.3750 H   0  0
   -3.7990   -0.6970    0.8140 H   0  0
   -7.0310   -0.8890   -1.8380 H   0  0
   -6.0550   -2.3420   -2.0350 H   0  0
   -5.3690   -0.7640   -2.4060 H   0  0
   -5.1270    1.1860   -2.1600 H   0  0
   -4.0760    2.3180   -1.3930 H   0  0
   -3.3810   -3.0210    0.2270 H   0  0
   -3.3580   -0.1270   -2.1410 H   0  0
   -2.6860   -3.5370   -1.7680 H   0  0
   -1.5370   -1.7730    1.0120 H   0  0
   -0.9300   -2.6740   -0.3380 H   0  0
   -2.2910    0.8130    0.5250 H   0  0
   -1.8540    2.7560   -0.8610 H   0  0
   -1.3220    1.7540   -2.1760 H   0  0
   -1.8180   -0.9550   -2.7420 H   0  0
   -0.3890    0.0980   -2.6760 H   0  0
   -0.2340   -1.6330   -2.3790 H   0  0
    0.7950    2.0350   -1.0640 H   0  0
    0.0840    1.5650    2.7480 H   0  0
    1.0590   -2.2090    0.5880 H   0  0
    2.8050   -1.8630    0.3240 H   0  0
    2.0410   -3.6370   -0.8610 H   0  0
    2.0510    3.5840    1.2640 H   0  0
    2.3260   -0.5270    2.5330 H   0  0
    4.5120    3.7990    1.4300 H   0  0
    4.7870   -0.3110    2.7010 H   0  0
    6.6290    1.5020    3.1410 H   0  0
    6.5740    2.9400    2.0900 H   0  0
    6.1620    2.3810   -0.4770 H   0  0
    7.8520   -0.3260    2.4140 H   0  0
    8.9200   -1.6190    0.5880 H   0  0
    6.6560    1.9570   -2.8480 H   0  0
    7.6350    0.6370   -3.3320 H   0  0
    8.6250   -0.9340   -1.7680 H   0  0
  1  2  2  0
  2  3  1  0
  2  4  1  0
  3  5  2  0
  4  6  2  0
  5  7  1  0
  5  8  1  0
  7  9  1  0
  7 10  1  0
  8 11  1  0
  9 12  1  0
  9 13  1  0
 12 14  1  0
 12 15  1  0
 13 16  1  0
 15 17  1  0
 16 18  1  0
 17 19  1  0
 17 20  1  0
 18 21  1  0
 19 22  1  0
 19 23  1  0
 21 24  1  0
 22 25  1  0
 23 26  2  0
 23 27  1  0
 25 28  1  0
 27 29  1  0
 28 30  2  0
 28 31  1  0
 30 32  1  0
 31 33  2  0
 32 34  2  0
 34 35  1  0
 35 36  1  0
 36 37  2  0
 36 38  1  0
 37 39  1  0
 38 40  2  0
 39 41  1  0
 39 42  2  0
  6  7  1  0
 13 11  1  0
 16 17  1  0
 19 21  1  0
 24 25  1  0
 33 34  1  0
 40 42  1  0
  3 43  1  0
  4 44  1  0
  6 45  1  0
  8 46  1  0
  8 47  1  0
  9 48  1  0
 10 49  1  0
 10 50  1  0
 10 51  1  0
 11 52  1  0
 11 53  1  0
 12 54  1  0
 13 55  1  0
 14 56  1  0
 15 57  1  0
 15 58  1  0
 16 59  1  0
 18 60  1  0
 18 61  1  0
 20 62  1  0
 20 63  1  0
 20 64  1  0
 21 65  1  0
 25 66  1  0
 27 67  1  0
 27 68  1  0
 29 69  1  0
 30 70  1  0
 31 71  1  0
 32 72  1  0
 33 73  1  0
 35 74  1  0
 35 75  1  0
 37 76  1  0
 38 77  1  0
 40 78  1  0
 41 79  1  0
 41 80  1  0
 42 81  1  0
M  END
> <Name>
CHEMBL5417330

> <IC50 nM>
5

> <Molecule_ChEMBL_ID>
CHEMBL5417330

> <Smiles>
C[C@]12C=CC(=O)C=C1CC[C@@H]1[C@@H]2[C@@H](O)C[C@@]2(C)[C@H]1C[C@H]1O[C@H](c3ccc(Cc4cccc(N)c4)cc3)O[C@]12C(=O)CO

$$$$
CHEMBL1908373
  SciTegic08162514323D

 72 76  0  0  1  0            999 V2000
   -6.1470   -1.6150   -1.8160 O   0  0
   -4.9430   -1.5080   -1.7730 C   0  0
   -4.1050   -2.5980   -1.2460 C   0  0
   -4.2480   -0.2620   -2.2600 C   0  0
   -2.8010   -2.4240   -0.9530 C   0  0
   -3.0230    0.0960   -1.4040 C   0  0
   -2.1350   -1.1000   -1.0800 C   0  0
   -1.9840   -3.6050   -0.4780 C   0  0
   -0.7930   -0.9610   -0.9040 C   0  0
   -0.5780   -3.5220   -1.0640 C   0  0
   -0.0920    0.3980   -0.8750 C   0  0  1  0  0  0
    0.1070   -2.1800   -0.7210 C   0  0  1  0  0  0
   -0.7110    1.3460    0.0860 C   0  0
    1.4080    0.2620   -0.5330 C   0  0
    1.3750   -2.0680   -1.5960 C   0  0  1  0  0  0
   -1.0410    2.6490   -0.3220 C   0  0
   -0.9670    0.9390    1.4080 C   0  0
    2.1270   -0.7150   -1.4780 C   0  0  2  0  0  0
    2.4140   -3.1450   -1.2640 C   0  0
   -1.6270    3.5470    0.5860 C   0  0
   -1.5530    1.8340    2.3210 C   0  0
    3.5430   -1.1040   -0.9730 C   0  0  1  0  0  0
    2.1880   -0.1270   -2.8980 C   0  0
    3.7440   -2.4820   -1.5980 C   0  0
   -1.8850    3.1410    1.9100 C   0  0
    4.5430   -0.2070   -1.4200 O   0  0
    3.7010   -1.2210    0.5450 C   0  0
   -2.4550    4.0140    2.7990 N   0  0
    4.0510    0.1480    1.1290 C   0  0
   -2.7230    3.5880    4.1800 C   0  0
   -2.8110    5.3810    2.3930 C   0  0
    3.7660    0.2420    2.6290 C   0  0
    4.1230    1.5330    3.0670 O   0  0
   -4.5640   -3.5640   -1.0940 H   0  0
   -3.9380   -0.4200   -3.2930 H   0  0
   -4.9470    0.5760   -2.2690 H   0  0
   -2.4610    0.8630   -1.9330 H   0  0
   -3.3610    0.5370   -0.4670 H   0  0
   -2.4510   -4.5450   -0.7770 H   0  0
   -1.9430   -3.6020    0.6120 H   0  0
   -0.6440   -3.6450   -2.1460 H   0  0
    0.0200   -4.3570   -0.6990 H   0  0
   -0.1760    0.8440   -1.8690 H   0  0
    0.4000   -2.2110    0.3300 H   0  0
    1.4960   -0.0840    0.4980 H   0  0
    1.9060    1.2340   -0.5660 H   0  0
    1.0740   -2.2210   -2.6230 H   0  0
   -0.8480    2.9670   -1.3380 H   0  0
   -0.7130   -0.0610    1.7270 H   0  0
    2.2600   -4.0490   -1.8300 H   0  0
    2.3790   -3.4100   -0.2170 H   0  0
   -1.8750    4.5450    0.2540 H   0  0
   -1.7420    1.5040    3.3320 H   0  0
    1.1970   -0.0200   -3.3380 H   0  0
    2.7770   -0.7680   -3.5550 H   0  0
    2.6560    0.8570   -2.8870 H   0  0
    4.5840   -3.0200   -1.1800 H   0  0
    3.8810   -2.4260   -2.6700 H   0  0
    4.7190   -0.4140   -2.3490 H   0  0
    2.7910   -1.6110    1.0000 H   0  0
    4.4690   -1.9530    0.7970 H   0  0
    3.5330    0.9410    0.5880 H   0  0
    5.0900    0.4040    0.9180 H   0  0
   -3.3830    2.7270    4.2740 H   0  0
   -3.1720    4.4160    4.7290 H   0  0
   -1.7790    3.3380    4.6660 H   0  0
   -1.9060    5.9140    2.0960 H   0  0
   -3.5660    5.3380    1.6100 H   0  0
   -3.2420    5.9080    3.2440 H   0  0
    4.3670   -0.4820    3.1800 H   0  0
    2.7050    0.0960    2.8280 H   0  0
    3.9360    1.5740    4.0180 H   0  0
  1  2  2  0
  2  3  1  0
  2  4  1  0
  3  5  2  0
  4  6  1  0
  5  7  1  0
  5  8  1  0
  7  9  2  0
  8 10  1  0
  9 11  1  0
  9 12  1  0
 11 13  1  0
 11 14  1  0
 12 15  1  0
 13 16  2  0
 13 17  1  0
 14 18  1  0
 15 19  1  0
 16 20  1  0
 17 21  2  0
 18 22  1  0
 18 23  1  0
 19 24  1  0
 20 25  2  0
 22 26  1  0
 22 27  1  0
 25 28  1  0
 27 29  1  0
 28 30  1  0
 28 31  1  0
 29 32  1  0
 32 33  1  0
  6  7  1  0
 12 10  1  0
 15 18  1  0
 21 25  1  0
 22 24  1  0
  3 34  1  0
  4 35  1  0
  4 36  1  0
  6 37  1  0
  6 38  1  0
  8 39  1  0
  8 40  1  0
 10 41  1  0
 10 42  1  0
 11 43  1  0
 12 44  1  0
 14 45  1  0
 14 46  1  0
 15 47  1  0
 16 48  1  0
 17 49  1  0
 19 50  1  0
 19 51  1  0
 20 52  1  0
 21 53  1  0
 23 54  1  0
 23 55  1  0
 23 56  1  0
 24 57  1  0
 24 58  1  0
 26 59  1  0
 27 60  1  0
 27 61  1  0
 29 62  1  0
 29 63  1  0
 30 64  1  0
 30 65  1  0
 30 66  1  0
 31 67  1  0
 31 68  1  0
 31 69  1  0
 32 70  1  0
 32 71  1  0
 33 72  1  0
M  END
> <Name>
CHEMBL1908373

> <IC50 nM>
27

> <Molecule_ChEMBL_ID>
CHEMBL1908373

> <Smiles>
CN(C)c1ccc([C@H]2C[C@]3(C)[C@@H](CC[C@]3(O)CCCO)[C@@H]3CCC4=CC(=O)CCC4=C32)cc1

$$$$
CHEMBL363137
  SciTegic08162514323D

 65 68  0  0  1  0            999 V2000
   -1.5410    4.7500   -5.0530 O   0  0
   -0.4260    4.4060   -4.7340 C   0  0
    0.7460    4.9940   -5.0800 O   0  0
   -0.1330    3.2660   -3.8910 C   0  0
    1.8730    4.2730   -4.4900 C   0  0
    1.2330    3.1410   -3.7170 C   0  0
   -1.0490    2.3630   -3.2970 C   0  0
    1.7310    2.0780   -2.9200 C   0  0
   -0.5550    1.3050   -2.5000 C   0  0
    0.8440    1.1540   -2.3070 C   0  0
    1.3200    0.1520   -1.5530 N   0  0
    0.6880   -0.1910   -0.3930 C   0  0
   -0.3030    0.4020   -0.0390 O   0  0
    1.2500   -1.3200    0.4300 C   0  0  1  0  0  0
    2.6560   -1.3130    0.3400 O   0  0
    0.8610   -1.0100    1.8750 C   0  0
    0.7480   -2.6880   -0.0370 C   0  0
    1.3150    0.3790    2.3240 C   0  0
   -0.4840   -3.1600    0.7380 C   0  0
    0.3750    1.4360    1.8610 C   0  0
    1.5570    0.4650    3.8300 C   0  0
    2.4920    0.9080    1.5060 C   0  0
   -0.7250   -4.6660    0.5330 C   0  0
   -1.7300   -2.3420    0.3500 C   0  0
    0.8750    2.6250    1.3010 C   0  0
   -1.0140    1.2460    1.9830 C   0  0
   -1.9860   -5.1520    1.2620 C   0  0
   -2.9920   -2.8320    1.0740 C   0  0
   -0.0120    3.6230    0.8630 C   0  0
   -1.9000    2.2460    1.5430 C   0  0
   -3.2210   -4.3340    0.8560 C   0  0
   -1.3980    3.4340    0.9840 C   0  0
    2.5160    3.9040   -5.2770 H   0  0
    2.4260    4.9380   -3.8420 H   0  0
   -2.1110    2.4800   -3.4490 H   0  0
    2.7990    1.9880   -2.7890 H   0  0
   -1.2560    0.6170   -2.0470 H   0  0
    2.1410   -0.3420   -1.8420 H   0  0
    2.9020   -0.5630   -0.2250 H   0  0
   -0.2130   -1.1310    2.0220 H   0  0
    1.2460   -1.7750    2.5510 H   0  0
    1.5450   -3.4300    0.0180 H   0  0
    0.5510   -2.6800   -1.1070 H   0  0
   -0.2890   -2.9900    1.7970 H   0  0
    1.8790    1.4590    4.1350 H   0  0
    2.3260   -0.2440    4.1370 H   0  0
    0.6470    0.2270    4.3810 H   0  0
    2.9060    1.8070    1.9630 H   0  0
    3.2760    0.1560    1.4260 H   0  0
    2.1740    1.1660    0.4940 H   0  0
    0.1410   -5.2310    0.8810 H   0  0
   -0.8220   -4.8790   -0.5310 H   0  0
   -1.5680   -1.2870    0.5700 H   0  0
   -1.8890   -2.4100   -0.7280 H   0  0
    1.9410    2.7770    1.2050 H   0  0
   -1.4040    0.3360    2.4100 H   0  0
   -1.8380   -5.0740    2.3400 H   0  0
   -2.1540   -6.2090    1.0490 H   0  0
   -2.8980   -2.6310    2.1430 H   0  0
   -3.8590   -2.2720    0.7290 H   0  0
    0.3730    4.5370    0.4340 H   0  0
   -2.9650    2.1000    1.6370 H   0  0
   -4.0920   -4.6660    1.4200 H   0  0
   -3.4430   -4.5180   -0.1950 H   0  0
   -2.0820    4.2010    0.6490 H   0  0
  1  2  2  0
  2  3  1  0
  2  4  1  0
  3  5  1  0
  4  6  2  0
  4  7  1  0
  6  8  1  0
  7  9  2  0
  8 10  2  0
 10 11  1  0
 11 12  1  0
 12 13  2  0
 12 14  1  0
 14 15  1  0
 14 16  1  0
 14 17  1  0
 16 18  1  0
 17 19  1  0
 18 20  1  0
 18 21  1  0
 18 22  1  0
 19 23  1  0
 19 24  1  0
 20 25  2  0
 20 26  1  0
 23 27  1  0
 24 28  1  0
 25 29  1  0
 26 30  2  0
 27 31  1  0
 29 32  2  0
  5  6  1  0
  9 10  1  0
 28 31  1  0
 30 32  1  0
  5 33  1  0
  5 34  1  0
  7 35  1  0
  8 36  1  0
  9 37  1  0
 11 38  1  0
 15 39  1  0
 16 40  1  0
 16 41  1  0
 17 42  1  0
 17 43  1  0
 19 44  1  0
 21 45  1  0
 21 46  1  0
 21 47  1  0
 22 48  1  0
 22 49  1  0
 22 50  1  0
 23 51  1  0
 23 52  1  0
 24 53  1  0
 24 54  1  0
 25 55  1  0
 26 56  1  0
 27 57  1  0
 27 58  1  0
 28 59  1  0
 28 60  1  0
 29 61  1  0
 30 62  1  0
 31 63  1  0
 31 64  1  0
 32 65  1  0
M  END
> <Name>
CHEMBL363137

> <IC50 nM>
9

> <Molecule_ChEMBL_ID>
CHEMBL363137

> <Smiles>
CC(C)(CC(O)(CC1CCCCC1)C(=O)Nc1ccc2c(c1)COC2=O)c1ccccc1

$$$$
CHEMBL243455
  SciTegic08162514323D

 70 75  0  0  0  0            999 V2000
    2.7910   -0.1310   -2.7620 S   0  0
    1.5940   -0.9510   -1.8730 C   0  0
    3.5530   -1.5680   -3.2440 C   0  0
    1.7700   -2.3480   -1.9410 C   0  0
    0.5310   -0.2690   -1.1450 C   0  0
    2.8930   -2.6910   -2.7270 C   0  0
    0.9060   -3.3200   -1.2870 C   0  0
    0.4810    1.0780   -1.0330 C   0  0
   -0.2690   -3.3730   -1.5620 O   0  0
    1.4360   -4.1760   -0.3550 N   0  0
    1.5350    1.7340   -1.5270 O   0  0
   -0.6430    1.7830   -0.3320 C   0  0
    2.8770   -4.1040   -0.0120 C   0  0
    0.5880   -5.1820    0.3280 C   0  0
    1.7810    3.0220   -1.1950 C   0  0
   -1.9550    1.2340   -0.1350 C   0  0
   -0.3320    3.0840    0.1700 C   0  0
    3.2070   -4.9120    1.2600 C   0  0
    0.7560   -5.1580    1.8650 C   0  0
    0.9080    3.7640   -0.3280 C   0  0
    2.9450    3.6190   -1.7270 C   0  0
   -2.7770    1.7810    0.8930 C   0  0
   -2.5310    0.1350   -0.9840 C   0  0
   -1.2170    3.6620    1.1250 C   0  0
    2.1430   -4.6860    2.3400 C   0  0
    1.2720    5.1130   -0.0040 C   0  0
    3.2830    4.9450   -1.3980 C   0  0
   -3.9220    1.1600    1.2730 N   0  0
   -2.3980    2.9960    1.5120 C   0  0
   -3.6290   -0.5230   -0.5590 C   0  0
   -1.9750   -0.2400   -2.3380 C   0  0
    0.5290    5.8990    0.7870 O   0  0
    2.4530    5.6860   -0.5330 C   0  0
   -4.3120   -0.1820    0.7540 C   0  0
    0.9670    6.1060    2.1230 C   0  0
    2.7890    6.9450   -0.2190 O   0  0
   -5.8260   -0.2010    0.5290 C   0  0
   -3.9360   -1.2400    1.7910 C   0  0
    4.4340   -1.6000   -3.8710 H   0  0
   -0.2150   -0.8940   -0.6800 H   0  0
    3.2110   -3.7090   -2.9120 H   0  0
    3.4670   -4.4650   -0.8570 H   0  0
    3.1540   -3.0570    0.1480 H   0  0
   -0.4630   -5.0590    0.0530 H   0  0
    0.8990   -6.1560   -0.0470 H   0  0
    4.1950   -4.6390    1.6330 H   0  0
    3.2600   -5.9770    1.0220 H   0  0
    0.5780   -6.1680    2.2340 H   0  0
   -0.0160   -4.5430    2.3260 H   0  0
    3.5860    3.0550   -2.3910 H   0  0
   -1.0430    4.6080    1.6060 H   0  0
    2.1040   -3.6210    2.5630 H   0  0
    2.4160   -5.1800    3.2700 H   0  0
    4.1780    5.3910   -1.8070 H   0  0
   -4.5310    1.5980    1.9410 H   0  0
   -3.0140    3.4400    2.2850 H   0  0
   -4.0430   -1.3160   -1.1660 H   0  0
   -1.2520    0.4770   -2.7270 H   0  0
   -2.7870   -0.3220   -3.0630 H   0  0
   -1.4820   -1.2110   -2.2790 H   0  0
    1.0240    5.1370    2.6170 H   0  0
    1.8870    6.6880    2.0940 H   0  0
    0.2130    6.6990    2.6410 H   0  0
    2.1490    7.5060    0.2380 H   0  0
   -6.1390    0.5410   -0.2050 H   0  0
   -6.3570    0.0060    1.4570 H   0  0
   -6.1500   -1.1800    0.1720 H   0  0
   -2.8610   -1.2600    1.9820 H   0  0
   -4.2300   -2.2340    1.4530 H   0  0
   -4.4370   -1.0470    2.7380 H   0  0
  1  2  1  0
  1  3  1  0
  2  4  2  0
  2  5  1  0
  3  6  2  0
  4  7  1  0
  5  8  2  0
  7  9  2  0
  7 10  1  0
  8 11  1  0
  8 12  1  0
 10 13  1  0
 10 14  1  0
 11 15  1  0
 12 16  2  0
 12 17  1  0
 13 18  1  0
 14 19  1  0
 15 20  2  0
 15 21  1  0
 16 22  1  0
 16 23  1  0
 17 24  2  0
 18 25  1  0
 20 26  1  0
 21 27  2  0
 22 28  1  0
 22 29  2  0
 23 30  2  0
 23 31  1  0
 26 32  1  0
 26 33  2  0
 28 34  1  0
 32 35  1  0
 33 36  1  0
 34 37  1  0
 34 38  1  0
  4  6  1  0
 17 20  1  0
 19 25  1  0
 24 29  1  0
 27 33  1  0
 30 34  1  0
  3 39  1  0
  5 40  1  0
  6 41  1  0
 13 42  1  0
 13 43  1  0
 14 44  1  0
 14 45  1  0
 18 46  1  0
 18 47  1  0
 19 48  1  0
 19 49  1  0
 21 50  1  0
 24 51  1  0
 25 52  1  0
 25 53  1  0
 27 54  1  0
 28 55  1  0
 29 56  1  0
 30 57  1  0
 31 58  1  0
 31 59  1  0
 31 60  1  0
 35 61  1  0
 35 62  1  0
 35 63  1  0
 36 64  1  0
 37 65  1  0
 37 66  1  0
 37 67  1  0
 38 68  1  0
 38 69  1  0
 38 70  1  0
M  END
> <Name>
CHEMBL243455

> <IC50 nM>
1

> <Molecule_ChEMBL_ID>
CHEMBL243455

> <Smiles>
COc1c(O)ccc2c1-c1ccc3c(c1/C(=C/c1sccc1C(=O)N1CCCCC1)O2)C(C)=CC(C)(C)N3

$$$$
CHEMBL3666813
  SciTegic08162514323D

 77 82  0  0  1  0            999 V2000
    0.9590   -4.5610    7.3730 F   0  0
    0.7850   -3.2050    7.4790 C   0  0
    1.1560   -2.7950    8.7330 F   0  0
    1.5920   -2.4860    6.4300 C   0  0
   -0.6850   -2.8610    7.2420 C   0  0
    2.1060   -3.0900    5.5180 O   0  0
    1.7330   -1.1310    6.5270 N   0  0
    2.5180   -0.4140    5.5100 C   0  0  2  0  0  0
    1.8280   -0.4710    4.1470 C   0  0  2  0  0  0
    3.9570   -0.9260    5.4670 C   0  0
    2.6580    0.1430    3.1720 O   0  0
    0.5200    0.2010    4.1720 C   0  0
    2.2850    0.0640    1.8870 C   0  0
   -0.6640   -0.5590    4.3320 C   0  0
    0.4450    1.6090    4.0310 C   0  0
    1.1920   -0.7660    1.5200 C   0  0
    2.9830    0.8090    0.8980 C   0  0
   -1.9220    0.0880    4.3520 C   0  0
   -0.8100    2.2600    4.0660 C   0  0
    0.8050   -0.8400    0.1540 C   0  0
    2.5940    0.7300   -0.4610 C   0  0
   -3.0530   -0.6370    4.4750 O   0  0
   -1.9920    1.5040    4.2420 C   0  0
    1.5020   -0.1070   -0.7870 C   0  0
   -0.2500   -1.6250   -0.2790 C   0  0
   -4.3180   -0.0230    4.2010 C   0  0
   -3.1890    2.1250    4.3050 O   0  0
    0.8600   -0.4300   -1.9380 N   0  0
   -0.1520   -1.3110   -1.6190 N   0  0
   -4.3340    1.4040    4.7750 C   0  0
    1.1450    0.0210   -3.1860 C   0  0
    0.1040    0.4020   -4.0570 C   0  0
    2.4830    0.1110   -3.6130 C   0  0
    0.4020    0.8710   -5.3500 C   0  0
    2.7790    0.5780   -4.9060 C   0  0
   -0.6990    1.2750   -6.2720 C   0  0
    1.7400    0.9590   -5.7740 C   0  0
   -1.8100    0.8110   -6.1540 O   0  0
   -0.4330    2.1860   -7.2560 N   0  0
   -1.5080    2.5940   -8.1720 C   0  0
   -1.8320    1.5200   -9.1490 C   0  0
   -0.9730    1.2640  -10.2360 C   0  0
   -2.9980    0.7500   -8.9960 C   0  0
   -1.2500    0.2830  -11.1450 N   0  0
   -3.2730   -0.2560   -9.9380 C   0  0
   -2.3810   -0.4690  -11.0040 C   0  0
   -1.3380   -3.3460    7.9690 H   0  0
   -1.0000   -3.1760    6.2480 H   0  0
   -0.8460   -1.7850    7.3170 H   0  0
    1.3070   -0.6330    7.2810 H   0  0
    2.6560    0.6190    5.8280 H   0  0
    1.6940   -1.5180    3.8710 H   0  0
    4.3710   -0.9960    6.4730 H   0  0
    4.0040   -1.9060    4.9940 H   0  0
    4.5900   -0.2480    4.8930 H   0  0
   -0.6110   -1.6330    4.4360 H   0  0
    1.3460    2.1910    3.9000 H   0  0
    0.6660   -1.3280    2.2770 H   0  0
    3.8130    1.4370    1.1840 H   0  0
   -0.8630    3.3340    3.9610 H   0  0
    3.1170    1.2910   -1.2210 H   0  0
   -0.9510   -2.2850    0.2170 H   0  0
   -4.4590    0.0040    3.1190 H   0  0
   -5.1070   -0.6410    4.6270 H   0  0
   -5.2340    1.9490    4.4880 H   0  0
   -4.2970    1.3730    5.8650 H   0  0
   -0.9280    0.3400   -3.7380 H   0  0
    3.2950   -0.1760   -2.9610 H   0  0
    3.8070    0.6460   -5.2330 H   0  0
    1.9790    1.3180   -6.7640 H   0  0
    0.4880    2.5640   -7.3460 H   0  0
   -1.2010    3.4900   -8.7070 H   0  0
   -2.3980    2.8380   -7.5940 H   0  0
   -0.0740    1.8520  -10.3580 H   0  0
   -3.6740    0.9260   -8.1720 H   0  0
   -4.1640   -0.8610   -9.8440 H   0  0
   -2.5920   -1.2420  -11.7290 H   0  0
  1  2  1  0
  2  3  1  0
  2  4  1  0
  2  5  1  0
  4  6  2  0
  4  7  1  0
  7  8  1  0
  8  9  1  0
  8 10  1  0
  9 11  1  0
  9 12  1  0
 11 13  1  0
 12 14  2  0
 12 15  1  0
 13 16  2  0
 13 17  1  0
 14 18  1  0
 15 19  2  0
 16 20  1  0
 17 21  2  0
 18 22  1  0
 18 23  2  0
 20 24  2  0
 20 25  1  0
 22 26  1  0
 23 27  1  0
 24 28  1  0
 25 29  2  0
 26 30  1  0
 28 31  1  0
 31 32  2  0
 31 33  1  0
 32 34  1  0
 33 35  2  0
 34 36  1  0
 34 37  2  0
 36 38  2  0
 36 39  1  0
 39 40  1  0
 40 41  1  0
 41 42  2  0
 41 43  1  0
 42 44  1  0
 43 45  2  0
 44 46  2  0
 19 23  1  0
 21 24  1  0
 27 30  1  0
 28 29  1  0
 35 37  1  0
 45 46  1  0
  5 47  1  0
  5 48  1  0
  5 49  1  0
  7 50  1  0
  8 51  1  0
  9 52  1  0
 10 53  1  0
 10 54  1  0
 10 55  1  0
 14 56  1  0
 15 57  1  0
 16 58  1  0
 17 59  1  0
 19 60  1  0
 21 61  1  0
 25 62  1  0
 26 63  1  0
 26 64  1  0
 30 65  1  0
 30 66  1  0
 32 67  1  0
 33 68  1  0
 35 69  1  0
 37 70  1  0
 39 71  1  0
 40 72  1  0
 40 73  1  0
 42 74  1  0
 43 75  1  0
 45 76  1  0
 46 77  1  0
M  END
> <Name>
CHEMBL3666813

> <IC50 nM>
0.17

> <Molecule_ChEMBL_ID>
CHEMBL3666813

> <Smiles>
C[C@H](NC(=O)C(C)(F)F)[C@H](Oc1ccc2c(cnn2-c2cccc(C(=O)NCc3cccnc3)c2)c1)c1ccc2c(c1)OCCO2

$$$$
CHEMBL3094480
  SciTegic08162514323D

 54 56  0  0  1  0            999 V2000
    1.6910    0.0780   -1.2420 S   0  0
    3.0200    0.6250   -1.4630 O   0  0
    1.6090   -1.3500   -1.5040 O   0  0
    1.3690    0.2740    0.4570 N   0  0
    0.5880    0.8890   -2.2950 C   0  0
    2.2030   -0.4570    1.3980 C   0  0  2  0  0  0
    1.0410    1.4140   -3.5200 C   0  0
   -0.7640    1.0240   -1.9280 C   0  0
    1.5920   -0.4120    2.7990 C   0  0
    3.6370    0.0700    1.3630 C   0  0
    0.1430    2.0740   -4.3770 C   0  0
    2.4690    1.2750   -3.9140 C   0  0
   -1.6600    1.6840   -2.7870 C   0  0
   -1.2500    0.4710   -0.6370 C   0  0
    0.2660   -1.0470    2.8320 C   0  0
    4.6110   -0.9120    0.7150 C   0  0
   -1.2090    2.2090   -4.0100 C   0  0
   -0.9000   -0.2440    2.8200 C   0  0
    0.1580   -2.4570    2.8730 C   0  0
   -2.1580    2.9060   -4.9160 C   0  0
   -2.1800   -0.8550    2.8520 C   0  0
   -1.1130   -3.0760    2.9080 C   0  0
   -2.2870   -2.2790    2.8960 C   0  0
   -3.3520   -0.0590    2.8360 C   0  0
   -3.5670   -2.8910    2.9320 C   0  0
   -4.6230   -0.6780    2.8690 C   0  0
   -4.7310   -2.0880    2.9180 C   0  0
    1.4060    1.2740    0.7010 H   0  0
    2.1520   -1.4650    0.9860 H   0  0
    1.5140    0.6150    3.1520 H   0  0
    2.2480   -0.9020    3.5200 H   0  0
    3.6800    1.0390    0.8650 H   0  0
    3.9730    0.3420    2.3630 H   0  0
    0.4900    2.4770   -5.3170 H   0  0
    2.8830    0.2770   -3.7600 H   0  0
    3.0740    1.9790   -3.3440 H   0  0
    2.5780    1.5200   -4.9710 H   0  0
   -2.6990    1.7870   -2.5060 H   0  0
   -0.8580   -0.5160   -0.3950 H   0  0
   -2.3380    0.4000   -0.6580 H   0  0
   -0.9770    1.1490    0.1740 H   0  0
    5.6090   -0.4800    0.6480 H   0  0
    4.6640   -1.8380    1.2870 H   0  0
    4.2910   -1.1640   -0.2970 H   0  0
   -0.8070    0.8320    2.7890 H   0  0
    1.0470   -3.0700    2.8810 H   0  0
   -3.1800    2.9570   -4.5410 H   0  0
   -2.1820    2.3970   -5.8790 H   0  0
   -1.8150    3.9260   -5.0880 H   0  0
   -1.1740   -4.1560    2.9410 H   0  0
   -3.2910    1.0200    2.8010 H   0  0
   -3.6700   -3.9670    2.9670 H   0  0
   -5.5160   -0.0700    2.8590 H   0  0
   -5.7050   -2.5510    2.9430 H   0  0
  1  2  2  0
  1  3  2  0
  1  4  1  0
  1  5  1  0
  6  4  1  0
  5  7  2  0
  5  8  1  0
  6  9  1  0
  6 10  1  0
  7 11  1  0
  7 12  1  0
  8 13  2  0
  8 14  1  0
  9 15  1  0
 10 16  1  0
 11 17  2  0
 15 18  2  0
 15 19  1  0
 17 20  1  0
 18 21  1  0
 19 22  2  0
 21 23  1  0
 21 24  2  0
 23 25  2  0
 24 26  1  0
 25 27  1  0
 13 17  1  0
 22 23  1  0
 26 27  2  0
  4 28  1  0
  6 29  1  0
  9 30  1  0
  9 31  1  0
 10 32  1  0
 10 33  1  0
 11 34  1  0
 12 35  1  0
 12 36  1  0
 12 37  1  0
 13 38  1  0
 14 39  1  0
 14 40  1  0
 14 41  1  0
 16 42  1  0
 16 43  1  0
 16 44  1  0
 18 45  1  0
 19 46  1  0
 20 47  1  0
 20 48  1  0
 20 49  1  0
 22 50  1  0
 24 51  1  0
 25 52  1  0
 26 53  1  0
 27 54  1  0
M  END
> <Name>
CHEMBL3094480

> <IC50 nM>
10000

> <Molecule_ChEMBL_ID>
CHEMBL3094480

> <Smiles>
CCC(Cc1ccc2ccccc2c1)NS(=O)(=O)c1c(C)cc(C)cc1C

$$$$
CHEMBL519947
  SciTegic08162514323D

 58 60  0  0  1  0            999 V2000
    3.1870    5.1270   -1.0080 Cl  0  0
    1.4920    4.8930   -1.1130 C   0  0
    0.9530    3.5960   -1.0260 C   0  0
    0.6370    5.9960   -1.2910 C   0  0
   -0.4380    3.4020   -1.1150 C   0  0
   -0.7520    5.8030   -1.3810 C   0  0
   -1.0100    2.0250   -1.0200 C   0  0
   -1.2890    4.5080   -1.2930 C   0  0
   -0.7070    1.1700   -1.8190 O   0  0
   -1.8830    1.7460   -0.0080 N   0  0
   -2.0020    2.6800    1.1230 C   0  0
   -2.7150    0.5330   -0.0220 C   0  0
   -1.1470    2.2190    2.3050 C   0  0  2  0  0  0
   -3.8650    0.6680   -1.0180 C   0  0
   -1.8830    1.2660    3.0370 O   0  0
   -0.9320    3.4450    3.1910 C   0  0
    0.1680    1.5700    1.8650 C   0  0
   -0.0680    4.3110    2.5720 F   0  0
   -0.4020    3.0510    4.3940 F   0  0
   -2.1350    4.0700    3.4040 F   0  0
   -0.0370    0.1640    1.4900 N   0  0
    0.9960   -0.5410    0.9410 C   0  0
    2.0680   -0.0140    0.7640 O   0  0
    0.7970   -1.9360    0.5680 C   0  0
    1.7420   -2.7850   -0.0570 C   0  0
   -0.3830   -2.6840    0.7730 C   0  0
    1.1210   -3.9820   -0.2070 N   0  0
    3.1130   -2.4120   -0.4530 N   0  0
   -0.1190   -3.9080    0.2830 N   0  0
    1.6540   -5.1000   -0.7660 C   0  0
    0.9590   -5.7810   -1.7830 C   0  0
    2.9040   -5.5820   -0.3280 C   0  0
    1.5120   -6.9390   -2.3600 C   0  0
    3.4530   -6.7380   -0.9060 C   0  0
    2.7580   -7.4180   -1.9220 C   0  0
    3.2790   -8.5140   -2.4690 F   0  0
    1.6050    2.7440   -0.8890 H   0  0
    1.0370    6.9980   -1.3600 H   0  0
   -1.4060    6.6510   -1.5200 H   0  0
   -2.3590    4.3690   -1.3630 H   0  0
   -3.0490    2.7600    1.4140 H   0  0
   -1.7030    3.6760    0.7970 H   0  0
   -2.0900   -0.3260   -0.2680 H   0  0
   -3.0940    0.3480    0.9840 H   0  0
   -4.4940   -0.2210   -1.0020 H   0  0
   -4.4770    1.5410   -0.7830 H   0  0
   -3.4860    0.7910   -2.0310 H   0  0
   -2.7930    1.2850    2.6990 H   0  0
    0.9100    1.6270    2.6620 H   0  0
    0.5980    2.1080    1.0190 H   0  0
   -0.9240   -0.2730    1.6370 H   0  0
   -1.3180   -2.3790    1.2230 H   0  0
    3.7290   -3.0570   -0.9040 H   0  0
    3.4530   -1.4880   -0.2720 H   0  0
   -0.0020   -5.4300   -2.1330 H   0  0
    3.4530   -5.0740    0.4510 H   0  0
    0.9730   -7.4570   -3.1410 H   0  0
    4.4120   -7.1040   -0.5670 H   0  0
  1  2  1  0
  2  3  2  0
  2  4  1  0
  3  5  1  0
  4  6  2  0
  5  7  1  0
  5  8  2  0
  7  9  2  0
  7 10  1  0
 10 11  1  0
 10 12  1  0
 11 13  1  0
 12 14  1  0
 13 15  1  0
 13 16  1  0
 13 17  1  0
 16 18  1  0
 16 19  1  0
 16 20  1  0
 17 21  1  0
 21 22  1  0
 22 23  2  0
 22 24  1  0
 24 25  2  0
 24 26  1  0
 25 27  1  0
 25 28  1  0
 26 29  2  0
 27 30  1  0
 30 31  2  0
 30 32  1  0
 31 33  1  0
 32 34  2  0
 33 35  2  0
 35 36  1  0
  6  8  1  0
 27 29  1  0
 34 35  1  0
  3 37  1  0
  4 38  1  0
  6 39  1  0
  8 40  1  0
 11 41  1  0
 11 42  1  0
 12 43  1  0
 12 44  1  0
 14 45  1  0
 14 46  1  0
 14 47  1  0
 15 48  1  0
 17 49  1  0
 17 50  1  0
 21 51  1  0
 26 52  1  0
 28 53  1  0
 28 54  1  0
 31 55  1  0
 32 56  1  0
 33 57  1  0
 34 58  1  0
M  END
> <Name>
CHEMBL519947

> <IC50 nM>
15.85

> <Molecule_ChEMBL_ID>
CHEMBL519947

> <Smiles>
CCN(CC(O)(CNC(=O)c1cnn(-c2ccc(F)cc2)c1N)C(F)(F)F)C(=O)c1cccc(Cl)c1

$$$$
CHEMBL1098849
  SciTegic08162514323D

 45 48  0  0  1  0            999 V2000
    4.4570    6.9590   -1.0860 F   0  0
    3.9690    5.7230   -0.9900 C   0  0
    4.5140    4.6900   -1.7720 C   0  0
    2.9100    5.4510   -0.1070 C   0  0
    4.0000    3.3850   -1.6720 C   0  0
    2.3930    4.1490   -0.0060 C   0  0
    2.9380    3.1110   -0.7890 C   0  0
    2.4390    1.8520   -0.6910 N   0  0
    3.1900    0.6950   -0.6680 N   0  0
    1.1330    1.4960   -0.6000 C   0  0
    2.4590   -0.4710   -0.5630 C   0  0
    1.2050    0.1190   -0.5270 C   0  0
   -0.0900    2.2070   -0.5740 C   0  0
    0.0100   -0.6370   -0.4200 C   0  0
   -1.2870    1.4590   -0.4670 C   0  0
   -1.2400    0.0410   -0.3890 C   0  0
   -2.4880   -0.7300   -0.2770 C   0  0  1  0  0  0
   -3.0470   -0.9080   -1.5590 O   0  0
   -2.1990   -2.0570    0.3260 C   0  0
   -3.5180   -0.0120    0.5980 C   0  0
   -2.5330   -3.2340   -0.3690 C   0  0
   -1.5940   -2.1390    1.5920 C   0  0
   -4.4670   -0.9080    1.0160 F   0  0
   -4.1170    0.9840   -0.1290 F   0  0
   -2.8890    0.5330    1.6880 F   0  0
   -2.2600   -4.4900    0.2010 C   0  0
   -1.3200   -3.3950    2.1620 C   0  0
   -1.6520   -4.5700    1.4690 C   0  0
   -1.3630   -5.8980    2.0720 C   0  0
    5.3280    4.8950   -2.4510 H   0  0
    2.4880    6.2440    0.4940 H   0  0
    4.4320    2.6040   -2.2810 H   0  0
    1.5780    3.9590    0.6780 H   0  0
    2.8090   -1.4940   -0.5250 H   0  0
   -0.1130    3.2850   -0.6330 H   0  0
    0.0410   -1.7170   -0.3590 H   0  0
   -2.2380    1.9750   -0.4450 H   0  0
   -2.3360   -1.2190   -2.1410 H   0  0
   -2.9980   -3.1800   -1.3420 H   0  0
   -1.3340   -1.2380    2.1310 H   0  0
   -2.5180   -5.3890   -0.3360 H   0  0
   -0.8540   -3.4490    3.1350 H   0  0
   -0.8870   -5.7600    3.0430 H   0  0
   -2.2830   -6.4790    2.1310 H   0  0
   -0.6660   -6.4430    1.4340 H   0  0
  1  2  1  0
  2  3  2  0
  2  4  1  0
  3  5  1  0
  4  6  2  0
  5  7  2  0
  7  8  1  0
  8  9  1  0
  8 10  1  0
  9 11  2  0
 10 12  1  0
 10 13  2  0
 12 14  2  0
 13 15  1  0
 14 16  1  0
 16 17  1  0
 17 18  1  0
 17 19  1  0
 17 20  1  0
 19 21  2  0
 19 22  1  0
 20 23  1  0
 20 24  1  0
 20 25  1  0
 21 26  1  0
 22 27  2  0
 26 28  2  0
 28 29  1  0
  6  7  1  0
 11 12  1  0
 15 16  2  0
 27 28  1  0
  3 30  1  0
  4 31  1  0
  5 32  1  0
  6 33  1  0
 11 34  1  0
 13 35  1  0
 14 36  1  0
 15 37  1  0
 18 38  1  0
 21 39  1  0
 22 40  1  0
 26 41  1  0
 27 42  1  0
 29 43  1  0
 29 44  1  0
 29 45  1  0
M  END
> <Name>
CHEMBL1098849

> <IC50 nM>
2089

> <Molecule_ChEMBL_ID>
CHEMBL1098849

> <Smiles>
Cc1ccc(C(O)(c2ccc3c(cnn3-c3ccc(F)cc3)c2)C(F)(F)F)cc1

$$$$
CHEMBL237807
  SciTegic08162514323D

 48 49  0  0  1  0            999 V2000
    0.7830    1.0880    2.4400 Cl  0  0
    0.4570   -0.5800    2.7480 C   0  0
    1.4470   -1.4340    3.3030 C   0  0
   -0.8200   -1.1070    2.4410 C   0  0
    3.0290   -0.8830    3.7030 Cl  0  0
    1.1470   -2.7890    3.5430 C   0  0
   -1.1040   -2.4610    2.6880 C   0  0
   -1.8930   -0.2540    1.8570 C   0  0
   -0.1230   -3.3010    3.2360 C   0  0
   -2.0040   -0.4470    0.3460 C   0  0  2  0  0  0
   -2.9220    0.5000   -0.1540 O   0  0
   -2.4980   -1.8420   -0.0370 C   0  0
   -0.6700   -0.2440   -0.3750 C   0  0
   -2.7320   -1.8890   -1.3870 F   0  0
   -3.6600   -2.1150    0.6370 F   0  0
   -1.5470   -2.7710    0.2950 F   0  0
   -0.7480    0.8180   -1.4730 C   0  0
    0.6890    0.6990   -1.8400 C   0  0
   -1.6600    0.4060   -2.6270 C   0  0
   -1.0760    2.2070   -0.9260 C   0  0
    1.6640    1.4530   -1.1560 C   0  0
    1.0700   -0.1700   -2.8790 C   0  0
    1.3160    2.2700   -0.1820 O   0  0
    3.0180    1.3300   -1.5160 C   0  0
    2.4260   -0.2890   -3.2340 C   0  0
    2.2890    3.1900    0.2950 C   0  0
    3.3980    0.4610   -2.5530 C   0  0
    2.7870   -1.1110   -4.2170 F   0  0
    1.8870   -3.4530    3.9650 H   0  0
   -2.0780   -2.8650    2.4530 H   0  0
   -2.8420   -0.4780    2.3460 H   0  0
   -1.6990    0.7910    2.1000 H   0  0
   -0.3480   -4.3400    3.4240 H   0  0
   -3.7290    0.4240    0.3790 H   0  0
    0.1190   -0.0060    0.3380 H   0  0
   -0.3030   -1.1870   -0.7770 H   0  0
   -1.3910    0.9100   -3.5570 H   0  0
   -2.6990    0.6520   -2.4040 H   0  0
   -1.6040   -0.6680   -2.8010 H   0  0
   -0.4770    2.9850   -1.4020 H   0  0
   -0.8890    2.2540    0.1470 H   0  0
   -2.1270    2.4490   -1.0920 H   0  0
    0.3220   -0.7480   -3.4040 H   0  0
    3.7680    1.9040   -0.9940 H   0  0
    1.7950    3.8910    0.9670 H   0  0
    3.1170    2.6210    0.7150 H   0  0
    2.6700    3.7540   -0.5570 H   0  0
    4.4410    0.3730   -2.8220 H   0  0
  1  2  1  0
  2  3  2  0
  2  4  1  0
  3  5  1  0
  3  6  1  0
  4  7  2  0
  4  8  1  0
  6  9  2  0
  8 10  1  0
 10 11  1  0
 10 12  1  0
 10 13  1  0
 12 14  1  0
 12 15  1  0
 12 16  1  0
 13 17  1  0
 17 18  1  0
 17 19  1  0
 17 20  1  0
 18 21  2  0
 18 22  1  0
 21 23  1  0
 21 24  1  0
 22 25  2  0
 23 26  1  0
 24 27  2  0
 25 28  1  0
  7  9  1  0
 25 27  1  0
  6 29  1  0
  7 30  1  0
  8 31  1  0
  8 32  1  0
  9 33  1  0
 11 34  1  0
 13 35  1  0
 13 36  1  0
 19 37  1  0
 19 38  1  0
 19 39  1  0
 20 40  1  0
 20 41  1  0
 20 42  1  0
 22 43  1  0
 24 44  1  0
 26 45  1  0
 26 46  1  0
 26 47  1  0
 27 48  1  0
M  END
> <Name>
CHEMBL237807

> <IC50 nM>
76

> <Molecule_ChEMBL_ID>
CHEMBL237807

> <Smiles>
COc1ccc(F)cc1C(C)(C)CC(O)(Cc1cccc(Cl)c1Cl)C(F)(F)F

$$$$
CHEMBL235063
  SciTegic08162514323D

 49 50  0  0  1  0            999 V2000
   -1.7680   -3.4960    0.5230 Cl  0  0
   -3.0290   -2.3320    0.4690 C   0  0
   -2.7500   -0.9490    0.5040 C   0  0
   -4.3650   -2.7750    0.3850 C   0  0
   -3.8050   -0.0200    0.4570 C   0  0
   -1.3520   -0.4410    0.5920 C   0  0
   -5.4120   -1.8360    0.3380 C   0  0
   -5.1370   -0.4590    0.3750 C   0  0
   -0.8770    0.1350   -0.7420 C   0  0  2  0  0  0
   -6.7770   -2.2890    0.2540 C   0  0
   -1.4140    1.4320   -0.8790 O   0  0
   -1.3320   -0.6990   -1.9390 C   0  0
    0.6470    0.2340   -0.8340 C   0  0
   -7.8770   -2.6520    0.1860 N   0  0
   -2.7010   -0.7270   -1.9840 F   0  0
   -0.8520   -1.9790   -1.8140 F   0  0
   -0.8480   -0.1410   -3.0960 F   0  0
    1.1930    1.5120   -0.1910 C   0  0
    2.6130    1.0780   -0.2790 C   0  0
    0.9300    2.7560   -1.0390 C   0  0
    0.7460    1.6800    1.2600 C   0  0
    3.1580    0.2230    0.6970 C   0  0
    3.4120    1.5290   -1.3480 C   0  0
    2.4200   -0.2070    1.7010 O   0  0
    4.5020   -0.1780    0.6000 C   0  0
    4.7560    1.1250   -1.4390 C   0  0
    2.9570   -1.2170    2.5390 C   0  0
    5.3010    0.2710   -0.4670 C   0  0
    5.5100    1.5530   -2.4490 F   0  0
   -4.5820   -3.8340    0.3570 H   0  0
   -3.5940    1.0410    0.4840 H   0  0
   -1.2850    0.3090    1.3810 H   0  0
   -0.6930   -1.2460    0.9200 H   0  0
   -5.9320    0.2730    0.3400 H   0  0
   -1.9260    1.4430   -1.7010 H   0  0
    1.1170   -0.6470   -0.3980 H   0  0
    0.9770    0.1520   -1.8690 H   0  0
    1.7360    3.4860   -0.9490 H   0  0
    0.0040    3.2440   -0.7300 H   0  0
    0.8340    2.4920   -2.0920 H   0  0
   -0.1860    2.2420    1.3360 H   0  0
    1.5040    2.2090    1.8380 H   0  0
    0.5860    0.7090    1.7310 H   0  0
    2.9940    2.1860   -2.0960 H   0  0
    4.9260   -0.8340    1.3460 H   0  0
    2.2090   -1.4710    3.2910 H   0  0
    3.3030   -2.0370    1.9080 H   0  0
    3.8240   -0.8070    3.0590 H   0  0
    6.3320   -0.0410   -0.5330 H   0  0
  1  2  1  0
  2  3  2  0
  2  4  1  0
  3  5  1  0
  3  6  1  0
  4  7  2  0
  5  8  2  0
  6  9  1  0
  7 10  1  0
  9 11  1  0
  9 12  1  0
  9 13  1  0
 10 14  3  0
 12 15  1  0
 12 16  1  0
 12 17  1  0
 13 18  1  0
 18 19  1  0
 18 20  1  0
 18 21  1  0
 19 22  2  0
 19 23  1  0
 22 24  1  0
 22 25  1  0
 23 26  2  0
 24 27  1  0
 25 28  2  0
 26 29  1  0
  7  8  1  0
 26 28  1  0
  4 30  1  0
  5 31  1  0
  6 32  1  0
  6 33  1  0
  8 34  1  0
 11 35  1  0
 13 36  1  0
 13 37  1  0
 20 38  1  0
 20 39  1  0
 20 40  1  0
 21 41  1  0
 21 42  1  0
 21 43  1  0
 23 44  1  0
 25 45  1  0
 27 46  1  0
 27 47  1  0
 27 48  1  0
 28 49  1  0
M  END
> <Name>
CHEMBL235063

> <IC50 nM>
17

> <Molecule_ChEMBL_ID>
CHEMBL235063

> <Smiles>
COc1ccc(F)cc1C(C)(C)CC(O)(Cc1ccc(C#N)cc1Cl)C(F)(F)F

$$$$
CHEMBL2040682
  SciTegic08162514323D

 83 88  0  0  1  0            999 V2000
   -8.3150   -0.7340   -1.7750 O   0  0
   -7.3440   -0.5180   -1.0860 C   0  0
   -6.5430   -1.6210   -0.5510 C   0  0
   -6.9400    0.8550   -0.7720 C   0  0
   -5.4770   -1.3950    0.2460 C   0  0
   -5.8850    1.1070    0.0270 C   0  0
   -5.0350    0.0100    0.6600 C   0  0  2  0  0  0
   -4.6470   -2.5490    0.7680 C   0  0
   -3.5250    0.1820    0.2890 C   0  0  1  0  0  0
   -5.2660    0.0980    2.1760 C   0  0
   -3.1600   -2.3440    0.4590 C   0  0
   -2.9240    1.5980    0.5470 C   0  0  1  0  0  0
   -2.6560   -0.9550    0.8960 C   0  0  1  0  0  0
   -3.1310    2.0080    1.8850 O   0  0
   -1.4140    1.6910    0.2190 C   0  0
   -1.2090   -0.7730    0.4100 C   0  0  1  0  0  0
   -0.5980    0.5590    0.8710 C   0  0  1  0  0  0
   -0.1780   -1.7890    0.9040 C   0  0
    0.8810    0.3960    0.4370 C   0  0  1  0  0  0
   -0.6170    0.6540    2.4060 C   0  0
    1.1580   -1.1150    0.5640 C   0  0  2  0  0  0
    1.0450    0.6040   -0.9550 O   0  0
    1.8790    1.2750    1.1620 C   0  0
    1.5660   -1.4940   -0.7380 O   0  0
    1.9340   -0.3550   -1.4770 C   0  0  1  0  0  0
    1.5120    2.2250    1.8160 O   0  0
    3.3400    0.9300    1.0490 C   0  0
    1.6840   -0.5720   -2.9650 C   0  0
    4.0290    1.4080    2.1930 O   0  0
    1.9790    0.7300   -3.7290 C   0  0
    2.5630   -1.7290   -3.4690 C   0  0
    5.3300    1.1350    2.1500 C   0  0
    1.8360    0.5370   -5.2440 C   0  0
    2.4200   -1.9220   -4.9860 C   0  0
    5.8650    0.5450    1.2400 O   0  0
    6.1250    1.6130    3.3360 C   0  0
    2.7070   -0.6210   -5.7500 C   0  0
    7.6250    1.6640    3.0510 C   0  0
    5.7930    0.8400    4.6110 C   0  0
   -6.8180   -2.6370   -0.8050 H   0  0
   -7.4980    1.6840   -1.1880 H   0  0
   -5.6410    2.1410    0.2250 H   0  0
   -4.7910   -2.6290    1.8460 H   0  0
   -4.9840   -3.4940    0.3420 H   0  0
   -3.4690    0.0530   -0.7930 H   0  0
   -6.2310   -0.3200    2.4650 H   0  0
   -5.2400    1.1350    2.5100 H   0  0
   -4.4920   -0.4450    2.7150 H   0  0
   -2.5840   -3.1270    0.9530 H   0  0
   -2.9980   -2.4730   -0.6130 H   0  0
   -3.4380    2.3300   -0.0740 H   0  0
   -2.6950   -0.9000    1.9860 H   0  0
   -3.0900    2.9770    1.8960 H   0  0
   -1.3090    1.6410   -0.8650 H   0  0
   -1.0120    2.6640    0.5060 H   0  0
   -1.2170   -0.8070   -0.6720 H   0  0
   -0.2680   -1.9340    1.9710 H   0  0
   -0.2990   -2.7600    0.4410 H   0  0
    0.1330    0.0120    2.8630 H   0  0
   -1.5920    0.3610    2.7970 H   0  0
   -0.4240    1.6780    2.7300 H   0  0
    1.9410   -1.3570    1.2700 H   0  0
    2.9530   -0.0780   -1.2440 H   0  0
    3.4630   -0.1520    1.0020 H   0  0
    3.7660    1.4100    0.1680 H   0  0
    0.6350   -0.8360   -3.1130 H   0  0
    2.9920    1.0640   -3.5060 H   0  0
    1.3090    1.5230   -3.3930 H   0  0
    2.3030   -2.6520   -2.9530 H   0  0
    3.6080   -1.5230   -3.2320 H   0  0
    2.1020    1.4570   -5.7640 H   0  0
    0.7910    0.3380   -5.4880 H   0  0
    1.4080   -2.2600   -5.2130 H   0  0
    3.0920   -2.7110   -5.3240 H   0  0
    5.7050    2.6190    3.3750 H   0  0
    2.5430   -0.7730   -6.8180 H   0  0
    3.7600   -0.3590   -5.6330 H   0  0
    7.8500    2.2440    2.1540 H   0  0
    8.0260    0.6600    2.9060 H   0  0
    8.1620    2.1190    3.8850 H   0  0
    4.7210    0.8650    4.8110 H   0  0
    6.1150   -0.1990    4.5270 H   0  0
    6.3010    1.2770    5.4710 H   0  0
  1  2  2  0
  2  3  1  0
  2  4  1  0
  3  5  2  0
  4  6  2  0
  5  7  1  0
  5  8  1  0
  7  9  1  0
  7 10  1  0
  8 11  1  0
  9 12  1  0
  9 13  1  0
 12 14  1  0
 12 15  1  0
 13 16  1  0
 15 17  1  0
 16 18  1  0
 17 19  1  0
 17 20  1  0
 18 21  1  0
 19 22  1  0
 19 23  1  0
 21 24  1  0
 22 25  1  0
 23 26  2  0
 23 27  1  0
 25 28  1  0
 27 29  1  0
 28 30  1  0
 28 31  1  0
 29 32  1  0
 30 33  1  0
 31 34  1  0
 32 35  2  0
 32 36  1  0
 33 37  1  0
 36 38  1  0
 36 39  1  0
  6  7  1  0
 13 11  1  0
 16 17  1  0
 19 21  1  0
 24 25  1  0
 34 37  1  0
  3 40  1  0
  4 41  1  0
  6 42  1  0
  8 43  1  0
  8 44  1  0
  9 45  1  0
 10 46  1  0
 10 47  1  0
 10 48  1  0
 11 49  1  0
 11 50  1  0
 12 51  1  0
 13 52  1  0
 14 53  1  0
 15 54  1  0
 15 55  1  0
 16 56  1  0
 18 57  1  0
 18 58  1  0
 20 59  1  0
 20 60  1  0
 20 61  1  0
 21 62  1  0
 25 63  1  0
 27 64  1  0
 27 65  1  0
 28 66  1  0
 30 67  1  0
 30 68  1  0
 31 69  1  0
 31 70  1  0
 33 71  1  0
 33 72  1  0
 34 73  1  0
 34 74  1  0
 36 75  1  0
 37 76  1  0
 37 77  1  0
 38 78  1  0
 38 79  1  0
 38 80  1  0
 39 81  1  0
 39 82  1  0
 39 83  1  0
M  END
> <Name>
CHEMBL2040682

> <IC50 nM>
2

> <Molecule_ChEMBL_ID>
CHEMBL2040682

> <Smiles>
CC(C)C(=O)OCC(=O)[C@@]12O[C@H](C3CCCCC3)O[C@@H]1C[C@H]1[C@@H]3CCC4=CC(=O)C=C[C@]4(C)[C@H]3[C@@H](O)C[C@@]12C

$$$$
CHEMBL4483697
  SciTegic08162514323D

 72 76  0  0  1  0            999 V2000
   -4.5700    1.7990   -2.4060 F   0  0
   -4.5120    2.4710   -1.2130 C   0  0
   -3.5200    3.4160   -1.2790 F   0  0
   -5.7110    3.0960   -0.9920 F   0  0
   -4.2310    1.5330   -0.1290 C   0  0
   -3.9980    0.7640    0.7500 C   0  0
   -3.7050   -0.1910    1.8320 C   0  0  1  0  0  0
   -4.6170   -1.2700    1.7110 O   0  0
   -2.2320   -0.6820    1.8110 C   0  0  2  0  0  0
   -3.8200    0.4710    3.2310 C   0  0
   -1.5620    0.5530    2.4530 C   0  0  1  0  0  0
   -1.5430   -1.0330    0.4710 C   0  0
   -2.1070   -1.9000    2.7540 C   0  0
   -2.3850    0.7280    3.7270 C   0  0
   -0.0470    0.3120    2.4490 C   0  0  1  0  0  0
   -0.5640    0.0390   -0.0640 C   0  0  1  0  0  0
    0.4750    0.5920    0.9940 C   0  0  2  0  0  0
    0.7030    1.1070    3.5270 C   0  0
   -0.0120   -0.3950   -1.3750 C   0  0
    2.0140    0.2460    0.9200 C   0  0  2  0  0  0
    2.2070    0.8140    3.4490 C   0  0
    0.3850   -1.7310   -1.5630 C   0  0
    0.1130    0.5290   -2.4260 C   0  0
    2.6520    1.0940    2.0330 C   0  0
    2.7810    0.5230   -0.4120 C   0  0
    2.2030   -1.2460    1.2320 C   0  0
    0.9060   -2.1430   -2.8010 C   0  0
    0.6350    0.1210   -3.6660 C   0  0
    3.5350    2.0940    1.8030 C   0  0
    3.0570    2.0040   -0.6860 C   0  0
    1.0330   -1.2170   -3.8560 C   0  0
    3.8730    2.5590    0.4510 C   0  0
    1.5410   -1.6170   -5.0650 N   0  0
    4.7680    3.3520    0.2700 O   0  0
    1.1930   -0.8810   -6.2870 C   0  0
    2.4360   -2.7790   -5.1600 C   0  0
   -4.3710   -1.7680    0.9160 H   0  0
   -4.3850    1.3930    3.2090 H   0  0
   -4.3260   -0.1680    3.9430 H   0  0
   -1.7300    1.4510    1.8750 H   0  0
   -0.9800   -1.9630    0.5860 H   0  0
   -2.3070   -1.2640   -0.2770 H   0  0
   -1.0860   -2.0330    3.1110 H   0  0
   -2.4040   -2.8170    2.2420 H   0  0
   -2.7520   -1.7810    3.6250 H   0  0
   -2.2700    1.7110    4.1580 H   0  0
   -2.1020    0.0080    4.4810 H   0  0
    0.1350   -0.7360    2.6860 H   0  0
   -1.1990    0.8870   -0.3200 H   0  0
    0.4300    1.6760    0.8590 H   0  0
    0.3300    0.8460    4.5180 H   0  0
    0.5180    2.1740    3.3970 H   0  0
    2.7440    1.4340    4.1680 H   0  0
    2.4140   -0.2230    3.7070 H   0  0
    0.2890   -2.4430   -0.7580 H   0  0
   -0.1890    1.5570   -2.2850 H   0  0
    3.7580    0.0370   -0.3420 H   0  0
    2.3500    0.0620   -1.2910 H   0  0
    3.2340   -1.5650    1.0780 H   0  0
    1.5660   -1.8580    0.5960 H   0  0
    1.9400   -1.4590    2.2700 H   0  0
    1.2050   -3.1740   -2.9280 H   0  0
    0.7230    0.8460   -4.4630 H   0  0
    4.0040    2.5900    2.6410 H   0  0
    3.6020    2.1230   -1.6230 H   0  0
    2.1250    2.5620   -0.7790 H   0  0
    0.1930   -0.4490   -6.2930 H   0  0
    1.2720   -1.5530   -7.1430 H   0  0
    1.9060   -0.0700   -6.4340 H   0  0
    3.1060   -2.7890   -4.3010 H   0  0
    1.8380   -3.6860   -5.2580 H   0  0
    3.0470   -2.6880   -6.0590 H   0  0
  1  2  1  0
  2  3  1  0
  2  4  1  0
  2  5  1  0
  5  6  3  0
  7  6  1  0
  7  8  1  0
  7  9  1  0
  7 10  1  0
  9 11  1  0
  9 12  1  0
  9 13  1  0
 10 14  1  0
 11 15  1  0
 12 16  1  0
 17 15  1  0
 15 18  1  0
 16 19  1  0
 17 20  1  0
 18 21  1  0
 19 22  2  0
 19 23  1  0
 20 24  1  0
 20 25  1  0
 20 26  1  0
 22 27  1  0
 23 28  2  0
 24 29  2  0
 25 30  1  0
 27 31  2  0
 29 32  1  0
 31 33  1  0
 32 34  2  0
 33 35  1  0
 33 36  1  0
 11 14  1  0
 16 17  1  0
 21 24  1  0
 28 31  1  0
 30 32  1  0
  8 37  1  0
 10 38  1  0
 10 39  1  0
 11 40  1  0
 12 41  1  0
 12 42  1  0
 13 43  1  0
 13 44  1  0
 13 45  1  0
 14 46  1  0
 14 47  1  0
 15 48  1  0
 16 49  1  0
 17 50  1  0
 18 51  1  0
 18 52  1  0
 21 53  1  0
 21 54  1  0
 22 55  1  0
 23 56  1  0
 25 57  1  0
 25 58  1  0
 26 59  1  0
 26 60  1  0
 26 61  1  0
 27 62  1  0
 28 63  1  0
 29 64  1  0
 30 65  1  0
 30 66  1  0
 35 67  1  0
 35 68  1  0
 35 69  1  0
 36 70  1  0
 36 71  1  0
 36 72  1  0
M  END
> <Name>
CHEMBL4483697

> <IC50 nM>
47.2

> <Molecule_ChEMBL_ID>
CHEMBL4483697

> <Smiles>
CN(C)c1ccc([C@H]2C[C@@]3(C)[C@@H](CC[C@@]3(O)C#CC(F)(F)F)[C@@H]3CCC4=CC(=O)CC[C@]4(C)[C@H]32)cc1

$$$$
CHEMBL4865865
  SciTegic08162514323D

 60 64  0  0  0  0            999 V2000
    3.3690    0.6350   -0.7870 S   0  0
    2.3180   -0.5590   -1.3340 C   0  0
    2.6520   -1.5780   -2.2400 N   0  0
    0.9750   -0.6860   -0.9570 N   0  0
    3.8910   -1.7440   -2.8050 C   0  0
    1.5330   -2.3970   -2.4750 C   0  0
    0.3280    0.1500   -0.0840 C   0  0
    0.3690   -1.8600   -1.6480 C   0  0
    4.6840   -0.6270   -3.1540 C   0  0
    4.3830   -3.0330   -3.0450 C   0  0
    1.5180   -3.3580   -3.2110 O   0  0
   -0.6900    1.0060   -0.5470 C   0  0
    0.6780    0.1540    1.2810 C   0  0
   -0.3710   -2.9100   -0.7850 C   0  0
   -0.9510   -1.6470   -2.4260 C   0  0
    5.9220   -0.7640   -3.7190 N   0  0
    5.6560   -3.1820   -3.6270 C   0  0
   -1.3520    1.8610    0.3500 C   0  0
    0.0140    1.0120    2.1740 C   0  0
   -1.7010   -2.2600   -1.2230 C   0  0
    6.4060   -2.0220   -3.9550 C   0  0
    6.1800   -4.5470   -3.8810 C   0  0
   -1.0020    1.8670    1.7110 C   0  0
    7.7050   -2.1880   -4.5470 C   0  0
    7.3650   -4.7150   -3.2150 F   0  0
    6.3830   -4.7170   -5.2270 F   0  0
    5.2700   -5.4730   -3.4380 F   0  0
   -1.6250    2.6700    2.5510 O   0  0
    8.7540   -2.3180   -5.0270 N   0  0
   -2.7460    3.3980    2.0700 C   0  0
   -3.9040    2.4260    1.8160 C   0  0
   -3.1430    4.4550    3.1110 C   0  0
   -4.4630    1.8480    3.1270 C   0  0
   -3.7270    3.8140    4.3810 C   0  0
   -4.8460    2.9200    4.0550 N   0  0
   -5.4750    2.3890    5.2580 C   0  0
    4.3110    0.3670   -2.9710 H   0  0
    3.8030   -3.9260   -2.7910 H   0  0
   -0.9730    1.0170   -1.5900 H   0  0
    1.4550   -0.4960    1.6560 H   0  0
   -0.1640   -2.9020    0.2850 H   0  0
   -0.2480   -3.9470   -1.1050 H   0  0
   -1.0450   -2.2130   -3.3540 H   0  0
   -1.2130   -0.6170   -2.6760 H   0  0
   -2.1310    2.5180   -0.0100 H   0  0
    0.2850    1.0120    3.2190 H   0  0
   -2.1170   -1.5370   -0.5200 H   0  0
   -2.5120   -2.9470   -1.4650 H   0  0
   -2.4510    3.8810    1.1410 H   0  0
   -3.5760    1.6170    1.1620 H   0  0
   -4.7010    2.9470    1.2830 H   0  0
   -2.2790    5.0700    3.3650 H   0  0
   -3.8810    5.1270    2.6740 H   0  0
   -5.3320    1.2230    2.9120 H   0  0
   -3.7190    1.2050    3.6020 H   0  0
   -2.9530    3.2520    4.9060 H   0  0
   -4.0700    4.5960    5.0610 H   0  0
   -5.6780    3.2050    5.9510 H   0  0
   -6.3710    1.8340    4.9840 H   0  0
   -4.7910    1.6950    5.7480 H   0  0
  1  2  2  0
  2  3  1  0
  2  4  1  0
  3  5  1  0
  3  6  1  0
  4  7  1  0
  4  8  1  0
  5  9  2  0
  5 10  1  0
  6 11  2  0
  7 12  2  0
  7 13  1  0
  8 14  1  0
  8 15  1  0
  9 16  1  0
 10 17  2  0
 12 18  1  0
 13 19  2  0
 14 20  1  0
 16 21  2  0
 17 22  1  0
 18 23  2  0
 21 24  1  0
 22 25  1  0
 22 26  1  0
 22 27  1  0
 23 28  1  0
 24 29  3  0
 28 30  1  0
 30 31  1  0
 30 32  1  0
 31 33  1  0
 32 34  1  0
 33 35  1  0
 35 36  1  0
  6  8  1  0
 15 20  1  0
 17 21  1  0
 19 23  1  0
 34 35  1  0
  9 37  1  0
 10 38  1  0
 12 39  1  0
 13 40  1  0
 14 41  1  0
 14 42  1  0
 15 43  1  0
 15 44  1  0
 18 45  1  0
 19 46  1  0
 20 47  1  0
 20 48  1  0
 30 49  1  0
 31 50  1  0
 31 51  1  0
 32 52  1  0
 32 53  1  0
 33 54  1  0
 33 55  1  0
 34 56  1  0
 34 57  1  0
 36 58  1  0
 36 59  1  0
 36 60  1  0
M  END
> <Name>
CHEMBL4865865

> <IC50 nM>
20000

> <Molecule_ChEMBL_ID>
CHEMBL4865865

> <Smiles>
CN1CCC(Oc2ccc(N3C(=S)N(c4cnc(C#N)c(C(F)(F)F)c4)C(=O)C34CCC4)cc2)CC1

$$$$
CHEMBL4514765
  SciTegic08162514323D

 76 80  0  0  1  0            999 V2000
   -5.9040   -2.3500   -2.3520 O   0  0
   -4.9650   -1.8950   -1.7380 C   0  0
   -4.0940   -2.7730   -0.9430 C   0  0
   -4.6450   -0.4200   -1.7750 C   0  0
   -2.9630   -2.3400   -0.3500 C   0  0
   -3.1330   -0.1890   -1.7010 C   0  0
   -2.4610   -0.9040   -0.4980 C   0  0  2  0  0  0
   -2.1640   -3.2890    0.5270 C   0  0
   -0.9040   -0.8590   -0.6850 C   0  0  1  0  0  0
   -2.9020   -0.2280    0.8130 C   0  0
   -0.6600   -3.2090    0.2700 C   0  0
   -0.2850    0.5740   -0.7910 C   0  0  1  0  0  0
   -0.1500   -1.7600    0.3240 C   0  0  1  0  0  0
   -0.6290    1.4750    0.3560 C   0  0
    1.2440    0.5220   -1.0190 C   0  0
    1.3480   -1.7600   -0.0350 C   0  0  1  0  0  0
   -0.8870    0.9280    1.6250 C   0  0
   -0.6910    2.8650    0.1620 C   0  0
    1.9570   -0.3480    0.0390 C   0  0  1  0  0  0
    2.2640   -2.5640    0.8850 C   0  0
   -1.2090    1.7720    2.7010 C   0  0
   -1.0140    3.7110    1.2380 C   0  0
    3.4650   -0.6700   -0.1520 C   0  0  2  0  0  0
    1.7640    0.2130    1.4610 C   0  0
    3.6580   -1.9550    0.6860 C   0  0
   -1.2730    3.1660    2.5100 C   0  0
    4.2870    0.3750    0.3400 O   0  0
    3.8360   -0.8870   -1.5590 C   0  0
   -1.5880    3.9900    3.5590 N   0  0
    4.1430   -1.0450   -2.6990 C   0  0
   -1.6600    5.4470    3.3810 C   0  0
   -1.8590    3.4180    4.8870 C   0  0
    4.5180   -1.2250   -4.0980 C   0  0
    5.3340   -0.1480   -4.5180 O   0  0
    5.7350   -0.2520   -5.8650 C   0  0
   -4.3870   -3.8050   -0.8260 H   0  0
   -5.0510    0.0250   -2.6820 H   0  0
   -5.1370    0.0660   -0.9340 H   0  0
   -2.9450    0.8850   -1.6560 H   0  0
   -2.6840   -0.5310   -2.6370 H   0  0
   -2.3670   -3.0430    1.5700 H   0  0
   -2.4980   -4.3160    0.3850 H   0  0
   -0.7190   -1.3140   -1.6620 H   0  0
   -3.9770   -0.3200    0.9750 H   0  0
   -2.6580    0.8340    0.7990 H   0  0
   -2.3960   -0.6760    1.6660 H   0  0
   -0.4410   -3.6460   -0.7050 H   0  0
   -0.1430   -3.8200    1.0100 H   0  0
   -0.7170    1.0630   -1.6660 H   0  0
   -0.2970   -1.3750    1.3340 H   0  0
    1.4100    0.1190   -2.0210 H   0  0
    1.6700    1.5250   -1.0330 H   0  0
    1.4570   -2.1540   -1.0370 H   0  0
   -0.8400   -0.1410    1.7770 H   0  0
   -0.4940    3.2890   -0.8100 H   0  0
    1.9550   -2.4550    1.9180 H   0  0
    2.2460   -3.6190    0.6560 H   0  0
   -1.4060    1.3340    3.6700 H   0  0
   -1.0590    4.7770    1.0700 H   0  0
    2.7110    0.3030    1.9940 H   0  0
    1.1130   -0.4360    2.0470 H   0  0
    1.3050    1.2010    1.4260 H   0  0
    4.3240   -2.6660    0.2170 H   0  0
    4.0840   -1.7420    1.6580 H   0  0
    5.2090    0.0920    0.2290 H   0  0
   -1.4470    5.7970    2.3710 H   0  0
   -0.9510    5.9260    4.0570 H   0  0
   -2.6600    5.7910    3.6510 H   0  0
   -1.7870    2.3320    4.9420 H   0  0
   -2.8630    3.7010    5.1990 H   0  0
   -1.1540    3.8360    5.6060 H   0  0
    3.6250   -1.2520   -4.7190 H   0  0
    5.0670   -2.1540   -4.2230 H   0  0
    6.3480    0.6190   -6.1040 H   0  0
    6.1990   -1.2270   -6.0100 H   0  0
    4.8420   -0.2110   -6.4880 H   0  0
  1  2  2  0
  2  3  1  0
  2  4  1  0
  3  5  2  0
  4  6  1  0
  5  7  1  0
  5  8  1  0
  7  9  1  0
  7 10  1  0
  8 11  1  0
  9 12  1  0
  9 13  1  0
 12 14  1  0
 12 15  1  0
 13 16  1  0
 14 17  2  0
 14 18  1  0
 15 19  1  0
 16 20  1  0
 17 21  1  0
 18 22  2  0
 19 23  1  0
 19 24  1  0
 20 25  1  0
 21 26  2  0
 23 27  1  0
 23 28  1  0
 26 29  1  0
 28 30  3  0
 29 31  1  0
 29 32  1  0
 30 33  1  0
 33 34  1  0
 34 35  1  0
  6  7  1  0
 13 11  1  0
 16 19  1  0
 22 26  1  0
 23 25  1  0
  3 36  1  0
  4 37  1  0
  4 38  1  0
  6 39  1  0
  6 40  1  0
  8 41  1  0
  8 42  1  0
  9 43  1  0
 10 44  1  0
 10 45  1  0
 10 46  1  0
 11 47  1  0
 11 48  1  0
 12 49  1  0
 13 50  1  0
 15 51  1  0
 15 52  1  0
 16 53  1  0
 17 54  1  0
 18 55  1  0
 20 56  1  0
 20 57  1  0
 21 58  1  0
 22 59  1  0
 24 60  1  0
 24 61  1  0
 24 62  1  0
 25 63  1  0
 25 64  1  0
 27 65  1  0
 31 66  1  0
 31 67  1  0
 31 68  1  0
 32 69  1  0
 32 70  1  0
 32 71  1  0
 33 72  1  0
 33 73  1  0
 35 74  1  0
 35 75  1  0
 35 76  1  0
M  END
> <Name>
CHEMBL4514765

> <IC50 nM>
116

> <Molecule_ChEMBL_ID>
CHEMBL4514765

> <Smiles>
COCC#C[C@]1(O)CC[C@H]2[C@@H]3CCC4=CC(=O)CC[C@]4(C)[C@H]3[C@@H](c3ccc(N(C)C)cc3)C[C@@]21C

$$$$
CHEMBL2419307
  SciTegic08162514323D

 39 42  0  0  1  0            999 V2000
   -0.0040   -3.2290    4.4160 F   0  0
    0.5310   -2.6040    3.3690 C   0  0
    1.5080   -3.2460    2.5900 C   0  0
    0.1170   -1.2990    3.0430 C   0  0
    2.0720   -2.5860    1.4840 C   0  0
    0.6820   -0.6390    1.9380 C   0  0
    1.6600   -1.2810    1.1560 C   0  0
    2.2600   -0.5780   -0.0200 C   0  0
    3.6330   -0.7250   -0.4770 C   0  0
    1.6450    0.2830   -0.8340 C   0  0
    4.4530   -1.4370    0.0550 O   0  0
    3.8440    0.0410   -1.5570 O   0  0
    0.2360    0.7230   -0.7480 C   0  0
    2.6330    0.7500   -1.8770 C   0  0  1  0  0  0
   -0.8010   -0.2380   -0.7380 C   0  0
   -0.0660    2.1020   -0.6740 C   0  0
    2.2170    0.4000   -3.1390 F   0  0
    2.8980    2.2500   -1.8260 C   0  0
   -2.1560    0.1780   -0.6560 C   0  0
   -1.4140    2.5240   -0.5940 C   0  0
   -3.1580   -0.7340   -0.6290 N   0  0
   -2.4590    1.5700   -0.5920 C   0  0
   -4.4790   -0.3550   -0.6890 C   0  0
   -3.7380    1.9960   -0.5160 O   0  0
   -5.3560   -1.1860   -0.6290 O   0  0
   -4.8220    1.1150   -0.8400 C   0  0
    1.8300   -4.2480    2.8380 H   0  0
   -0.6350   -0.8030    3.6390 H   0  0
    2.8240   -3.0880    0.8910 H   0  0
    0.3570    0.3610    1.6930 H   0  0
   -0.5550   -1.2910   -0.7930 H   0  0
    0.7230    2.8400   -0.6780 H   0  0
    3.8180    2.4960   -2.3560 H   0  0
    2.0720    2.8030   -2.2730 H   0  0
    3.0060    2.5880   -0.7950 H   0  0
   -1.6450    3.5760   -0.5370 H   0  0
   -2.9450   -1.7130   -0.5590 H   0  0
   -5.1100    1.3050   -1.8750 H   0  0
   -5.6760    1.3770   -0.2130 H   0  0
  1  2  1  0
  2  3  2  0
  2  4  1  0
  3  5  1  0
  4  6  2  0
  5  7  2  0
  7  8  1  0
  8  9  1  0
  8 10  2  0
  9 11  2  0
  9 12  1  0
 10 13  1  0
 10 14  1  0
 13 15  2  0
 13 16  1  0
 14 17  1  0
 14 18  1  0
 15 19  1  0
 16 20  2  0
 19 21  1  0
 19 22  2  0
 21 23  1  0
 22 24  1  0
 23 25  2  0
 23 26  1  0
  6  7  1  0
 12 14  1  0
 20 22  1  0
 24 26  1  0
  3 27  1  0
  4 28  1  0
  5 29  1  0
  6 30  1  0
 15 31  1  0
 16 32  1  0
 18 33  1  0
 18 34  1  0
 18 35  1  0
 20 36  1  0
 21 37  1  0
 26 38  1  0
 26 39  1  0
M  END
> <Name>
CHEMBL2419307

> <IC50 nM>
10000

> <Molecule_ChEMBL_ID>
CHEMBL2419307

> <Smiles>
CC1(F)OC(=O)C(c2ccc(F)cc2)=C1c1ccc2c(c1)NC(=O)CO2

$$$$
CHEMBL4758961
  SciTegic08162514323D

 72 75  0  0  1  0            999 V2000
  -10.5610    1.2930    1.6130 F   0  0
   -9.6920    1.0000    0.5940 C   0  0
  -10.3320    0.2320   -0.3460 F   0  0
   -9.2580    2.1640    0.0160 F   0  0
   -8.5350    0.2440    1.1910 C   0  0
   -8.4960    0.0020    2.3750 O   0  0
   -7.5240   -0.1640    0.3690 N   0  0
   -6.3870   -0.9020    0.9360 C   0  0  2  0  0  0
   -5.0720   -0.4650    0.2890 C   0  0  2  0  0  0
   -6.6130   -2.4120    0.8480 C   0  0
   -4.0060   -1.2420    0.8120 O   0  0
   -4.7990    0.9770    0.5250 C   0  0
   -2.7890   -1.0080    0.3610 C   0  0
   -4.8830    1.8930   -0.5370 C   0  0
   -4.4550    1.4260    1.8130 C   0  0
   -1.6620   -1.3980    1.1110 C   0  0
   -2.6000   -0.3650   -0.8750 C   0  0
   -4.6250    3.2560   -0.3140 C   0  0
   -4.1970    2.7890    2.0370 C   0  0
   -0.3950   -1.1660    0.6620 N   0  0
   -1.2910   -0.1290   -1.3280 C   0  0
   -4.2810    3.7070    0.9750 C   0  0
   -0.2010   -0.5430   -0.5350 C   0  0
   -4.0080    5.1480    1.2110 C   0  0
    1.1930   -0.2970   -1.0100 C   0  0
    1.4020    0.2540   -2.0650 O   0  0
    2.2340   -0.7050   -0.2250 N   0  0
    3.6190   -0.4690   -0.6800 C   0  0  2  0  0  0
    4.6000   -1.4360    0.0210 C   0  0
    4.0230    1.0020   -0.4650 C   0  0
    6.0060   -1.1290   -0.3360 N   0  0
    5.4690    1.2340   -0.9340 C   0  0
    6.8590   -2.1170   -0.7440 C   0  0
    6.4590    0.2790   -0.2420 C   0  0
    6.4770   -3.2620   -0.8260 O   0  0
    8.2810   -1.7520   -1.0820 C   0  0  1  0  0  0
    8.9220   -1.1780    0.0550 O   0  0
    9.1510   -2.9360   -1.5270 C   0  0
   10.2130   -1.4810   -0.0230 C   0  0
   10.5310   -2.4180   -1.1480 C   0  0
   11.0630   -1.0640    0.7280 O   0  0
   -7.5590    0.0370   -0.6090 H   0  0
   -6.3580   -0.7440    2.0140 H   0  0
   -5.1350   -0.6520   -0.7830 H   0  0
   -7.5550   -2.6900    1.3240 H   0  0
   -6.6350   -2.7380   -0.1930 H   0  0
   -5.8130   -2.9530    1.3500 H   0  0
   -5.1470    1.5550   -1.5290 H   0  0
   -4.3890    0.7270    2.6330 H   0  0
   -1.7990   -1.8930    2.0610 H   0  0
   -3.4470   -0.0550   -1.4690 H   0  0
   -4.6920    3.9550   -1.1350 H   0  0
   -3.9340    3.1290    3.0270 H   0  0
   -1.1310    0.3630   -2.2750 H   0  0
   -3.7520    5.3930    2.2400 H   0  0
   -4.8870    5.7340    0.9390 H   0  0
   -3.1840    5.4710    0.5760 H   0  0
    2.0530   -1.1580    0.6460 H   0  0
    3.6390   -0.6740   -1.7500 H   0  0
    4.5060   -1.3520    1.1070 H   0  0
    4.3630   -2.4690   -0.2360 H   0  0
    3.3540    1.6700   -1.0060 H   0  0
    3.9450    1.2620    0.5940 H   0  0
    5.7580    2.2680   -0.7460 H   0  0
    5.5220    1.0940   -2.0140 H   0  0
    6.5490    0.5410    0.8120 H   0  0
    7.4510    0.3910   -0.6820 H   0  0
    8.2770   -1.0000   -1.8610 H   0  0
    9.0550   -3.1620   -2.5800 H   0  0
    8.9160   -3.8260   -0.9610 H   0  0
   10.9900   -1.8730   -1.9610 H   0  0
   11.1950   -3.2110   -0.8320 H   0  0
  1  2  1  0
  2  3  1  0
  2  4  1  0
  2  5  1  0
  5  6  2  0
  5  7  1  0
  7  8  1  0
  8  9  1  0
  8 10  1  0
  9 11  1  0
  9 12  1  0
 11 13  1  0
 12 14  2  0
 12 15  1  0
 13 16  2  0
 13 17  1  0
 14 18  1  0
 15 19  2  0
 16 20  1  0
 17 21  2  0
 18 22  2  0
 20 23  2  0
 22 24  1  0
 23 25  1  0
 25 26  2  0
 25 27  1  0
 28 27  1  0
 28 29  1  0
 28 30  1  0
 29 31  1  0
 30 32  1  0
 31 33  1  0
 31 34  1  0
 33 35  2  0
 36 33  1  0
 36 37  1  0
 36 38  1  0
 37 39  1  0
 38 40  1  0
 39 41  2  0
 19 22  1  0
 21 23  1  0
 32 34  1  0
 39 40  1  0
  7 42  1  0
  8 43  1  0
  9 44  1  0
 10 45  1  0
 10 46  1  0
 10 47  1  0
 14 48  1  0
 15 49  1  0
 16 50  1  0
 17 51  1  0
 18 52  1  0
 19 53  1  0
 21 54  1  0
 24 55  1  0
 24 56  1  0
 24 57  1  0
 27 58  1  0
 28 59  1  0
 29 60  1  0
 29 61  1  0
 30 62  1  0
 30 63  1  0
 32 64  1  0
 32 65  1  0
 34 66  1  0
 34 67  1  0
 36 68  1  0
 38 69  1  0
 38 70  1  0
 40 71  1  0
 40 72  1  0
M  END
> <Name>
CHEMBL4758961

> <IC50 nM>
73

> <Molecule_ChEMBL_ID>
CHEMBL4758961

> <Smiles>
Cc1ccc([C@@H](Oc2ccc(C(=O)N[C@H]3CCCN(C(=O)[C@@H]4CCC(=O)O4)C3)nc2)[C@H](C)NC(=O)C(F)(F)F)cc1

$$$$
CHEMBL4476413
  SciTegic08162514323D

 81 85  0  0  1  0            999 V2000
   -6.4840   -0.1990   -2.1680 O   0  0
   -5.4490   -0.0900   -1.5510 C   0  0
   -4.8690   -1.2460   -0.8500 C   0  0
   -4.7170    1.2250   -1.4770 C   0  0
   -3.6620   -1.2050   -0.2400 C   0  0
   -3.2010    0.9900   -1.4240 C   0  0
   -2.7680    0.0350   -0.2830 C   0  0  2  0  0  0
   -3.1720   -2.4100    0.5410 C   0  0
   -1.2620   -0.3570   -0.4880 C   0  0  1  0  0  0
   -3.0000    0.7170    1.0700 C   0  0
   -1.6970   -2.7290    0.2890 C   0  0
   -0.2580    0.8420   -0.5410 C   0  0  1  0  0  0
   -0.8070   -1.4880    0.4730 C   0  0  1  0  0  0
   -0.3650    1.7790    0.6050 C   0  0
    1.2030    0.3650   -0.7380 C   0  0
    0.6470   -1.8810    0.1430 C   0  0  1  0  0  0
   -0.1970    3.1600    0.4020 C   0  0
   -0.6350    1.2870    1.8950 C   0  0
    1.6210   -0.7010    0.2950 C   0  0  1  0  0  0
    1.2910   -2.9530    1.0230 C   0  0
   -0.3010    4.0490    1.4860 C   0  0
   -0.7380    2.1740    2.9800 C   0  0
    2.9850   -1.4220    0.1020 C   0  0  2  0  0  0
    1.5490   -0.1520    1.7320 C   0  0
    2.8050   -2.7010    0.9430 C   0  0
   -0.5700    3.5590    2.7770 C   0  0
    4.0570   -0.6410    0.6050 O   0  0
    3.2830   -1.7400   -1.3050 C   0  0
   -0.6700    4.4240    3.8360 N   0  0
    3.5330   -1.9960   -2.4410 C   0  0
   -0.8260    3.9020    5.2010 C   0  0
   -0.6230    5.8790    3.6290 C   0  0
    3.8420   -2.2970   -3.8380 C   0  0
    2.7540   -3.2210   -4.3910 C   0  0
    3.8790   -0.9880   -4.6310 C   0  0
    5.2050   -2.9900   -3.9020 C   0  0
   -5.4450   -2.1600   -0.8200 H   0  0
   -4.9710    1.8400   -2.3400 H   0  0
   -5.0470    1.7700   -0.5920 H   0  0
   -2.6990    1.9530   -1.3260 H   0  0
   -2.8830    0.5740   -2.3810 H   0  0
   -3.3120   -2.2090    1.6040 H   0  0
   -3.7770   -3.2890    0.3160 H   0  0
   -1.2150   -0.7970   -1.4880 H   0  0
   -4.0620    0.8280    1.2930 H   0  0
   -2.5530    1.7110    1.0820 H   0  0
   -2.5490    0.1390    1.8770 H   0  0
   -1.3850   -3.5270    0.9650 H   0  0
   -1.5860   -3.1210   -0.7210 H   0  0
   -0.5040    1.4360   -1.4220 H   0  0
   -0.8790   -1.1540    1.5080 H   0  0
    1.8970    1.2090   -0.7010 H   0  0
    1.2790   -0.0430   -1.7460 H   0  0
    0.6680   -2.2340   -0.8810 H   0  0
    0.0100    3.5430   -0.5860 H   0  0
   -0.7640    0.2270    2.0550 H   0  0
    0.9590   -2.8540    2.0490 H   0  0
    1.0290   -3.9470    0.6950 H   0  0
   -0.1680    5.1090    1.3110 H   0  0
   -0.9450    1.7770    3.9630 H   0  0
    0.7250   -0.5900    2.2950 H   0  0
    1.4100    0.9300    1.7250 H   0  0
    2.4710   -0.3650    2.2730 H   0  0
    3.1900   -2.5700    1.9470 H   0  0
    3.3260   -3.5550    0.5290 H   0  0
    4.0450    0.2010    0.1250 H   0  0
   -1.6870    3.2500    5.3460 H   0  0
   -0.9180    4.7360    5.8950 H   0  0
    0.0670    3.3380    5.4730 H   0  0
    0.3260    6.1450    3.1660 H   0  0
   -1.4920    6.1860    3.0490 H   0  0
   -0.6740    6.3790    4.5960 H   0  0
    2.6990   -4.1600   -3.8420 H   0  0
    2.9450   -3.4570   -5.4380 H   0  0
    1.7760   -2.7420   -4.3320 H   0  0
    4.6410   -0.3070   -4.2560 H   0  0
    2.9180   -0.4770   -4.5760 H   0  0
    4.0920   -1.1820   -5.6840 H   0  0
    6.0020   -2.3590   -3.5080 H   0  0
    5.4590   -3.2440   -4.9320 H   0  0
    5.1950   -3.9140   -3.3240 H   0  0
  1  2  2  0
  2  3  1  0
  2  4  1  0
  3  5  2  0
  4  6  1  0
  5  7  1  0
  5  8  1  0
  7  9  1  0
  7 10  1  0
  8 11  1  0
  9 12  1  0
  9 13  1  0
 12 14  1  0
 12 15  1  0
 13 16  1  0
 14 17  2  0
 14 18  1  0
 15 19  1  0
 16 20  1  0
 17 21  1  0
 18 22  2  0
 19 23  1  0
 19 24  1  0
 20 25  1  0
 21 26  2  0
 23 27  1  0
 23 28  1  0
 26 29  1  0
 28 30  3  0
 29 31  1  0
 29 32  1  0
 30 33  1  0
 33 34  1  0
 33 35  1  0
 33 36  1  0
  6  7  1  0
 13 11  1  0
 16 19  1  0
 22 26  1  0
 23 25  1  0
  3 37  1  0
  4 38  1  0
  4 39  1  0
  6 40  1  0
  6 41  1  0
  8 42  1  0
  8 43  1  0
  9 44  1  0
 10 45  1  0
 10 46  1  0
 10 47  1  0
 11 48  1  0
 11 49  1  0
 12 50  1  0
 13 51  1  0
 15 52  1  0
 15 53  1  0
 16 54  1  0
 17 55  1  0
 18 56  1  0
 20 57  1  0
 20 58  1  0
 21 59  1  0
 22 60  1  0
 24 61  1  0
 24 62  1  0
 24 63  1  0
 25 64  1  0
 25 65  1  0
 27 66  1  0
 31 67  1  0
 31 68  1  0
 31 69  1  0
 32 70  1  0
 32 71  1  0
 32 72  1  0
 34 73  1  0
 34 74  1  0
 34 75  1  0
 35 76  1  0
 35 77  1  0
 35 78  1  0
 36 79  1  0
 36 80  1  0
 36 81  1  0
M  END
> <Name>
CHEMBL4476413

> <IC50 nM>
33.6

> <Molecule_ChEMBL_ID>
CHEMBL4476413

> <Smiles>
CN(C)c1ccc([C@H]2C[C@@]3(C)[C@@H](CC[C@@]3(O)C#CC(C)(C)C)[C@@H]3CCC4=CC(=O)CC[C@]4(C)[C@H]32)cc1

$$$$
CHEMBL1644759
  SciTegic08162514323D

 48 51  0  0  1  0            999 V2000
   -0.4770    2.7300   -0.2500 Cl  0  0
   -0.3500    1.0020   -0.2810 C   0  0
   -1.5290    0.2130   -0.1520 C   0  0
    0.9240    0.3530   -0.4240 C   0  0
   -2.8560    0.8160   -0.0660 C   0  0
   -1.4510   -1.1930   -0.1020 C   0  0
    1.0000   -1.0760   -0.2870 C   0  0
    2.1700    1.1540   -0.6950 C   0  0  1  0  0  0
   -3.6190    0.7460    1.1270 C   0  0
   -3.4020    1.4920   -1.1910 C   0  0
   -0.1990   -1.8380   -0.1520 C   0  0
    2.2010   -1.7190   -0.2750 N   0  0
    3.3950    0.2750   -1.0430 C   0  0  2  0  0  0
    1.9860    2.1580   -1.8500 C   0  0
   -3.3690    0.1740    2.3670 N   0  0
   -4.8650    1.3140    1.2050 C   0  0
   -4.6930    2.0780   -1.1040 C   0  0
   -0.1910   -3.3130   -0.0550 C   0  0
    3.4900   -0.9960   -0.1780 C   0  0
    4.5820    1.0430   -0.9180 O   0  0
   -4.5040    0.4200    3.1800 C   0  0
   -5.4400    1.9940    0.1020 C   0  0
   -5.4380    1.1460    2.4160 C   0  0
    4.6130   -1.9100   -0.6910 C   0  0
    3.7440   -0.6660    1.2990 C   0  0
   -2.3500   -1.7890   -0.0140 H   0  0
    2.3850    1.7130    0.2170 H   0  0
   -2.8500    1.5660   -2.1170 H   0  0
    2.2440   -2.7190   -0.3010 H   0  0
    3.3320   -0.0160   -2.0960 H   0  0
    1.8160    3.1620   -1.4630 H   0  0
    2.8670    2.1700   -2.4920 H   0  0
    1.1290    1.8870   -2.4630 H   0  0
   -2.5510   -0.3180    2.6410 H   0  0
   -5.1110    2.5920   -1.9590 H   0  0
    0.3890   -3.7030    0.7830 H   0  0
    0.2210   -3.7370   -0.9710 H   0  0
   -1.2130   -3.6760    0.0510 H   0  0
    5.2500    0.6330   -1.4900 H   0  0
   -4.5980    0.0900    4.2050 H   0  0
   -6.4220    2.4390    0.1640 H   0  0
   -6.4100    1.4920    2.7440 H   0  0
    4.4980   -2.1390   -1.7500 H   0  0
    4.6210   -2.8540   -0.1450 H   0  0
    5.5860   -1.4380   -0.5550 H   0  0
    2.9820   -0.0020    1.7050 H   0  0
    4.7110   -0.1760    1.4240 H   0  0
    3.7520   -1.5740    1.9020 H   0  0
  1  2  1  0
  2  3  2  0
  2  4  1  0
  3  5  1  0
  3  6  1  0
  4  7  2  0
  4  8  1  0
  5  9  2  0
  5 10  1  0
  6 11  2  0
  7 12  1  0
  8 13  1  0
  8 14  1  0
  9 15  1  0
  9 16  1  0
 10 17  2  0
 11 18  1  0
 12 19  1  0
 13 20  1  0
 15 21  1  0
 16 22  2  0
 16 23  1  0
 19 24  1  0
 19 25  1  0
  7 11  1  0
 13 19  1  0
 17 22  1  0
 21 23  2  0
  6 26  1  0
  8 27  1  0
 10 28  1  0
 12 29  1  0
 13 30  1  0
 14 31  1  0
 14 32  1  0
 14 33  1  0
 15 34  1  0
 17 35  1  0
 18 36  1  0
 18 37  1  0
 18 38  1  0
 20 39  1  0
 21 40  1  0
 22 41  1  0
 23 42  1  0
 24 43  1  0
 24 44  1  0
 24 45  1  0
 25 46  1  0
 25 47  1  0
 25 48  1  0
M  END
> <Name>
CHEMBL1644759

> <IC50 nM>
1.1

> <Molecule_ChEMBL_ID>
CHEMBL1644759

> <Smiles>
Cc1cc(-c2cccc3cc[nH]c23)c(Cl)c2c1NC(C)(C)[C@H](O)[C@H]2C

$$$$
CHEMBL4758563
  SciTegic08162514323D

 55 58  0  0  1  0            999 V2000
    6.2620    5.6090   -1.5800 F   0  0
    5.7740    4.3750   -1.4840 C   0  0
    6.3050    3.3460   -2.2790 C   0  0
    4.7270    4.1000   -0.5880 C   0  0
    5.7910    2.0410   -2.1790 C   0  0
    4.2110    2.7970   -0.4860 C   0  0
    4.7420    1.7640   -1.2830 C   0  0
    4.2440    0.5020   -1.1850 N   0  0
    4.9940   -0.6520   -1.1600 N   0  0
    2.9380    0.1480   -1.0930 C   0  0
    4.2640   -1.8180   -1.0560 C   0  0
    3.0120   -1.2310   -1.0210 C   0  0
    1.7150    0.8590   -1.0680 C   0  0
    1.8150   -1.9860   -0.9140 C   0  0
    0.5180    0.1090   -0.9610 C   0  0
    0.5670   -1.3090   -0.8830 C   0  0
   -0.5700   -2.0120   -0.7810 O   0  0
   -1.7790   -1.2970   -0.5620 C   0  0  2  0  0  0
   -1.7090   -0.5940    0.7440 C   0  0
   -2.9610   -2.2660   -0.6190 C   0  0  1  0  0  0
   -2.2400    0.7010    0.8770 C   0  0
   -1.1110   -1.2230    1.8520 C   0  0
   -4.2360   -1.5510   -0.4700 N   0  0
   -2.9590   -3.1270   -1.8830 C   0  0
   -2.1740    1.3650    2.1140 C   0  0
   -1.0450   -0.5570    3.0880 C   0  0
   -5.2440   -2.1210    0.2520 C   0  0
   -1.5760    0.7380    3.2210 C   0  0
   -5.0920   -3.2030    0.7660 O   0  0
   -6.5430   -1.3730    0.3950 C   0  0
   -1.5060    1.4410    4.5300 C   0  0
   -7.3810   -2.1470    1.1550 F   0  0
   -7.1090   -1.1580   -0.8360 F   0  0
   -6.3400   -0.1700    1.0200 F   0  0
    7.1100    3.5530   -2.9700 H   0  0
    4.3150    4.8890    0.0260 H   0  0
    6.2130    1.2620   -2.8010 H   0  0
    3.4040    2.6030    0.2090 H   0  0
    4.6170   -2.8420   -1.0170 H   0  0
    1.6920    1.9370   -1.1270 H   0  0
    1.8420   -3.0650   -0.8530 H   0  0
   -0.4330    0.6190   -0.9390 H   0  0
   -1.8930   -0.5670   -1.3630 H   0  0
   -2.8790   -3.0200    0.1640 H   0  0
   -2.7010    1.1890    0.0320 H   0  0
   -0.7010   -2.2170    1.7560 H   0  0
   -4.3650   -0.6540   -0.8940 H   0  0
   -3.8220   -3.7930   -1.8960 H   0  0
   -2.9800   -2.5000   -2.7750 H   0  0
   -2.0600   -3.7420   -1.9290 H   0  0
   -2.5840    2.3610    2.2090 H   0  0
   -0.5840   -1.0470    3.9340 H   0  0
   -1.0230    0.8690    5.3210 H   0  0
   -2.5140    1.6890    4.8620 H   0  0
   -0.9550    2.3750    4.4110 H   0  0
  1  2  1  0
  2  3  2  0
  2  4  1  0
  3  5  1  0
  4  6  2  0
  5  7  2  0
  7  8  1  0
  8  9  1  0
  8 10  1  0
  9 11  2  0
 10 12  1  0
 10 13  2  0
 12 14  2  0
 13 15  1  0
 14 16  1  0
 16 17  1  0
 18 17  1  0
 18 19  1  0
 18 20  1  0
 19 21  2  0
 19 22  1  0
 20 23  1  0
 20 24  1  0
 21 25  1  0
 22 26  2  0
 23 27  1  0
 25 28  2  0
 27 29  2  0
 27 30  1  0
 28 31  1  0
 30 32  1  0
 30 33  1  0
 30 34  1  0
  6  7  1  0
 11 12  1  0
 15 16  2  0
 26 28  1  0
  3 35  1  0
  4 36  1  0
  5 37  1  0
  6 38  1  0
 11 39  1  0
 13 40  1  0
 14 41  1  0
 15 42  1  0
 18 43  1  0
 20 44  1  0
 21 45  1  0
 22 46  1  0
 23 47  1  0
 24 48  1  0
 24 49  1  0
 24 50  1  0
 25 51  1  0
 26 52  1  0
 31 53  1  0
 31 54  1  0
 31 55  1  0
M  END
> <Name>
CHEMBL4758563

> <IC50 nM>
2

> <Molecule_ChEMBL_ID>
CHEMBL4758563

> <Smiles>
Cc1ccc([C@@H](Oc2ccc3c(cnn3-c3ccc(F)cc3)c2)[C@H](C)NC(=O)C(F)(F)F)cc1

$$$$
CHEMBL3578276
  SciTegic08162514323D

 60 64  0  0  1  0            999 V2000
   -6.3790   -2.0120   -0.8280 S   0  0
   -5.7050   -2.5550   -1.9940 O   0  0
   -5.7270   -2.3590    0.4240 O   0  0
   -6.3520   -0.3960   -0.9570 N   0  0
   -8.0590   -2.6230   -0.7950 C   0  0
   -5.1820    0.2540   -0.9960 C   0  0
   -3.9590   -0.4690   -0.9260 C   0  0
   -5.1490    1.6720   -1.1070 C   0  0
   -2.7340    0.2400   -0.9690 C   0  0
   -3.9120    2.3630   -1.1500 C   0  0
   -1.4790   -0.2380   -0.9160 N   0  0
   -2.7110    1.6190   -1.0780 C   0  0
   -0.6930    0.8950   -0.9980 C   0  0
   -1.4380    2.0550   -1.1020 N   0  0
    0.8200    0.8650   -0.9780 C   0  0  1  0  0  0
    1.3160    2.2130   -0.9120 O   0  0
    1.3610    0.1970    0.2700 C   0  0
    1.3540    0.2070   -2.2440 C   0  0
    2.0510    2.3340    0.1950 C   0  0
    1.2010   -0.9430    0.6410 O   0  0
    2.1110    1.1600    0.9380 N   0  0
    2.8360    0.2750   -2.3140 C   0  0
    2.6190    3.3400    0.5510 O   0  0
    2.8280    0.9690    2.1950 C   0  0  1  0  0  0
    3.6130   -0.7890   -1.8200 C   0  0
    3.4630    1.4020   -2.8750 C   0  0
    2.3130   -0.2070    2.9450 C   0  0
    4.3420    0.8870    1.9920 C   0  0
    5.0160   -0.7250   -1.8870 C   0  0
    4.8670    1.4650   -2.9390 C   0  0
    1.2380   -0.0550    3.8400 C   0  0
    2.9000   -1.4710    2.7640 C   0  0
    5.6430    0.4020   -2.4470 C   0  0
    0.7500   -1.1660    4.5490 C   0  0
    2.4140   -2.5820    3.4750 C   0  0
    1.3380   -2.4300    4.3670 C   0  0
    0.8770   -3.4820    5.0390 F   0  0
   -7.2110    0.1150   -1.0080 H   0  0
   -8.6840   -2.1780   -0.0210 H   0  0
   -8.0490   -3.7010   -0.6330 H   0  0
   -8.5330   -2.4360   -1.7560 H   0  0
   -3.9490   -1.5470   -0.8400 H   0  0
   -6.0660    2.2420   -1.1620 H   0  0
   -3.8910    3.4400   -1.2360 H   0  0
   -1.1070    2.9880   -1.1740 H   0  0
    0.9260    0.6760   -3.1310 H   0  0
    1.0330   -0.8340   -2.3010 H   0  0
    2.5740    1.7730    2.8850 H   0  0
    3.1370   -1.6580   -1.3910 H   0  0
    2.8730    2.2230   -3.2560 H   0  0
    4.8420    0.6150    2.9220 H   0  0
    4.5900    0.1500    1.2270 H   0  0
    4.7400    1.8500    1.6680 H   0  0
    5.6110   -1.5410   -1.5080 H   0  0
    5.3480    2.3320   -3.3690 H   0  0
    0.7810    0.9140    3.9830 H   0  0
    3.7270   -1.5960    2.0800 H   0  0
    6.7210    0.4510   -2.4980 H   0  0
   -0.0760   -1.0430    5.2350 H   0  0
    2.8690   -3.5510    3.3320 H   0  0
  1  2  2  0
  1  3  2  0
  1  4  1  0
  1  5  1  0
  4  6  1  0
  6  7  2  0
  6  8  1  0
  7  9  1  0
  8 10  2  0
  9 11  1  0
  9 12  2  0
 11 13  2  0
 12 14  1  0
 15 13  1  0
 15 16  1  0
 15 17  1  0
 15 18  1  0
 16 19  1  0
 17 20  2  0
 17 21  1  0
 18 22  1  0
 19 23  2  0
 21 24  1  0
 22 25  2  0
 22 26  1  0
 24 27  1  0
 24 28  1  0
 25 29  1  0
 26 30  2  0
 27 31  2  0
 27 32  1  0
 29 33  2  0
 31 34  1  0
 32 35  2  0
 34 36  2  0
 36 37  1  0
 10 12  1  0
 13 14  1  0
 19 21  1  0
 30 33  1  0
 35 36  1  0
  4 38  1  0
  5 39  1  0
  5 40  1  0
  5 41  1  0
  7 42  1  0
  8 43  1  0
 10 44  1  0
 14 45  1  0
 18 46  1  0
 18 47  1  0
 24 48  1  0
 25 49  1  0
 26 50  1  0
 28 51  1  0
 28 52  1  0
 28 53  1  0
 29 54  1  0
 30 55  1  0
 31 56  1  0
 32 57  1  0
 33 58  1  0
 34 59  1  0
 35 60  1  0
M  END
> <Name>
CHEMBL3578276

> <IC50 nM>
20000

> <Molecule_ChEMBL_ID>
CHEMBL3578276

> <Smiles>
C[C@H](c1ccc(F)cc1)N1C(=O)O[C@](Cc2ccccc2)(c2nc3cc(NS(C)(=O)=O)ccc3[nH]2)C1=O

$$$$
CHEMBL1084360
  SciTegic08162514323D

 46 49  0  0  0  0            999 V2000
   -5.4400   -3.6290   -0.9690 S   0  0
   -5.8010   -2.4370   -1.7170 O   0  0
   -4.5260   -4.5020   -1.6860 O   0  0
   -4.6920   -3.1450    0.3850 N   0  0
   -6.9280   -4.5430   -0.5840 C   0  0
   -3.5270   -2.4280    0.3050 C   0  0
   -2.8750   -2.0060    1.4780 C   0  0
   -2.9830   -2.1090   -0.9530 C   0  0
   -1.6800   -1.2680    1.3980 C   0  0
   -1.7890   -1.3730   -1.0370 C   0  0
   -1.1330   -0.9490    0.1350 C   0  0
   -1.0140   -0.8360    2.6600 C   0  0
    0.1030   -0.1860    0.0250 C   0  0
    0.2420   -1.3830    2.7250 F   0  0
   -1.7520   -1.2620    3.7340 F   0  0
   -0.9200    0.5310    2.6820 F   0  0
    1.3590   -0.8570   -0.0060 C   0  0
    0.0640    1.2340   -0.0550 C   0  0
    2.5570   -0.1030   -0.1130 C   0  0
    1.2620    1.9840   -0.1600 C   0  0
    2.4820    1.2730   -0.1880 C   0  0
    3.8090   -0.6910   -0.1480 C   0  0
    3.7910    1.6290   -0.2770 N   0  0
    4.5390    0.4730   -0.2540 N   0  0
    4.2870    2.8890   -0.3750 C   0  0
    5.3360    3.1680   -1.2750 C   0  0
    3.7580    3.9220    0.4240 C   0  0
    5.8500    4.4730   -1.3750 C   0  0
    4.2750    5.2250    0.3220 C   0  0
    5.3200    5.5020   -0.5760 C   0  0
    5.8070    6.7360   -0.6720 F   0  0
   -5.0780   -3.3710    1.2790 H   0  0
   -7.4320   -4.8220   -1.5100 H   0  0
   -6.6760   -5.4040    0.0350 H   0  0
   -7.6060   -3.9100   -0.0120 H   0  0
   -3.2850   -2.2440    2.4490 H   0  0
   -3.4690   -2.4260   -1.8650 H   0  0
   -1.3830   -1.1390   -2.0120 H   0  0
    1.4000   -1.9370    0.0530 H   0  0
   -0.8810    1.7600   -0.0330 H   0  0
    1.2380    3.0630   -0.2210 H   0  0
    4.1600   -1.7150   -0.1110 H   0  0
    5.7560    2.3910   -1.8970 H   0  0
    2.9550    3.7290    1.1210 H   0  0
    6.6520    4.6800   -2.0660 H   0  0
    3.8650    6.0140    0.9370 H   0  0
  1  2  2  0
  1  3  2  0
  1  4  1  0
  1  5  1  0
  4  6  1  0
  6  7  2  0
  6  8  1  0
  7  9  1  0
  8 10  2  0
  9 11  2  0
  9 12  1  0
 11 13  1  0
 12 14  1  0
 12 15  1  0
 12 16  1  0
 13 17  2  0
 13 18  1  0
 17 19  1  0
 18 20  2  0
 19 21  2  0
 19 22  1  0
 21 23  1  0
 22 24  2  0
 23 25  1  0
 25 26  2  0
 25 27  1  0
 26 28  1  0
 27 29  2  0
 28 30  2  0
 30 31  1  0
 10 11  1  0
 20 21  1  0
 23 24  1  0
 29 30  1  0
  4 32  1  0
  5 33  1  0
  5 34  1  0
  5 35  1  0
  7 36  1  0
  8 37  1  0
 10 38  1  0
 17 39  1  0
 18 40  1  0
 20 41  1  0
 22 42  1  0
 26 43  1  0
 27 44  1  0
 28 45  1  0
 29 46  1  0
M  END
> <Name>
CHEMBL1084360

> <IC50 nM>
10

> <Molecule_ChEMBL_ID>
CHEMBL1084360

> <Smiles>
CS(=O)(=O)Nc1ccc(-c2ccc3c(cnn3-c3ccc(F)cc3)c2)c(C(F)(F)F)c1

$$$$
CHEMBL3605929
  SciTegic08162514323D

 41 43  0  0  0  0            999 V2000
   -2.7340    4.4340   -0.5040 S   0  0
   -3.6700    3.9140   -1.4860 O   0  0
   -3.3090    4.5550    0.8240 O   0  0
   -1.5000    3.3890   -0.4060 N   0  0
   -2.1700    6.0430   -1.0390 C   0  0
   -1.7210    2.1210   -0.0200 C   0  0
   -0.5590    1.3010    0.0270 C   0  0
   -2.9830    1.5760    0.3280 C   0  0
    0.7850    1.5290   -0.2440 N   0  0
   -0.6480   -0.0160    0.4080 C   0  0
   -3.0680    0.2150    0.7170 C   0  0
    1.4670    0.3150   -0.0100 C   0  0
    0.5430   -0.6700    0.4060 C   0  0
   -1.9000   -0.5920    0.7600 C   0  0
   -4.2460   -0.3090    1.0450 F   0  0
    2.9630    0.1720   -0.1990 C   0  0
    0.8340   -2.0840    0.7560 C   0  0
    1.5370   -2.9160   -0.1410 C   0  0
    0.3980   -2.5940    1.9940 C   0  0
    1.9570   -2.4610   -1.3050 O   0  0
    1.8010   -4.2520    0.2130 C   0  0
    0.6640   -3.9300    2.3400 C   0  0
    2.7110   -3.3360   -2.1310 C   0  0
    1.3650   -4.7600    1.4490 C   0  0
    1.6170   -6.0230    1.7770 F   0  0
   -0.5720    3.6880   -0.6330 H   0  0
   -2.9590    6.7910   -1.1230 H   0  0
   -1.6900    5.9550   -2.0140 H   0  0
   -1.4280    6.4220   -0.3340 H   0  0
   -3.8750    2.1880    0.2970 H   0  0
    1.1930    2.3830   -0.5470 H   0  0
   -1.9750   -1.6270    1.0570 H   0  0
    3.3950   -0.7070    0.2790 H   0  0
    3.4650    1.0510    0.2050 H   0  0
    3.1910    0.1170   -1.2640 H   0  0
   -0.1430   -1.9690    2.6890 H   0  0
    2.3400   -4.8910   -0.4710 H   0  0
    0.3260   -4.3140    3.2910 H   0  0
    2.9260   -2.8220   -3.0690 H   0  0
    3.5760   -3.6820   -1.5610 H   0  0
    2.0960   -4.2050   -2.3600 H   0  0
  1  2  2  0
  1  3  2  0
  1  4  1  0
  1  5  1  0
  4  6  1  0
  6  7  2  0
  6  8  1  0
  7  9  1  0
  7 10  1  0
  8 11  2  0
  9 12  1  0
 10 13  1  0
 10 14  2  0
 11 15  1  0
 12 16  1  0
 13 17  1  0
 17 18  2  0
 17 19  1  0
 18 20  1  0
 18 21  1  0
 19 22  2  0
 20 23  1  0
 21 24  2  0
 24 25  1  0
 11 14  1  0
 12 13  2  0
 22 24  1  0
  4 26  1  0
  5 27  1  0
  5 28  1  0
  5 29  1  0
  8 30  1  0
  9 31  1  0
 14 32  1  0
 16 33  1  0
 16 34  1  0
 16 35  1  0
 19 36  1  0
 21 37  1  0
 22 38  1  0
 23 39  1  0
 23 40  1  0
 23 41  1  0
M  END
> <Name>
CHEMBL3605929

> <IC50 nM>
22

> <Molecule_ChEMBL_ID>
CHEMBL3605929

> <Smiles>
COc1cc(F)ccc1-c1c(C)[nH]c2c(NS(C)(=O)=O)cc(F)cc12

$$$$
CHEMBL3582120
  SciTegic08162514323D

 52 56  0  0  0  0            999 V2000
    3.7910   -2.4460   -0.4770 O   0  0
    2.8560   -1.9850    0.1370 C   0  0
    2.0590   -2.8480    1.1000 C   0  0
    2.4490   -0.5280   -0.0430 C   0  0
    0.6090   -2.5160    1.1070 N   0  0
    2.2110   -4.3260    0.7190 C   0  0
    2.6110   -2.6350    2.5100 C   0  0
    0.9790   -0.3200    0.1060 C   0  0
    3.1800    0.2910    1.0270 C   0  0
    2.9120   -0.0650   -1.4340 C   0  0
    0.1430   -1.3200    0.6620 C   0  0
    0.3750    0.8920   -0.3010 C   0  0
   -1.2700   -1.1560    0.8050 C   0  0
   -1.0180    1.0700   -0.1640 C   0  0
   -1.8480    0.0560    0.3850 C   0  0
   -2.3220   -2.0900    1.3570 C   0  0
   -1.6270    2.3460   -0.6020 C   0  0
   -3.3380    0.0660    0.6070 C   0  0
   -3.6640   -1.3870    1.0310 C   0  0
   -1.3610    2.9760   -1.9200 C   0  0
   -2.4790    3.0120    0.2090 C   0  0
   -1.8750    4.1390   -2.4000 N   0  0
   -0.5640    2.6110   -3.0040 C   0  0
   -3.0740    4.2890   -0.2540 C   0  0
   -1.4360    4.4410   -3.6470 N   0  0
   -2.7710    4.7910   -1.4770 C   0  0
   -0.5760    3.4820   -4.1000 C   0  0
   -0.0020   -3.2230    1.4710 H   0  0
    1.8420   -4.5280   -0.2870 H   0  0
    1.6560   -4.9610    1.4100 H   0  0
    3.2580   -4.6270    0.7580 H   0  0
    2.3300   -1.6530    2.8910 H   0  0
    2.2380   -3.4010    3.1910 H   0  0
    3.7010   -2.6920    2.5100 H   0  0
    2.7620    0.1290    2.0200 H   0  0
    3.1150    1.3550    0.8090 H   0  0
    4.2360    0.0210    1.0630 H   0  0
    2.3610   -0.5630   -2.2320 H   0  0
    3.9710   -0.2760   -1.5780 H   0  0
    2.7660    1.0100   -1.5510 H   0  0
    0.9810    1.6850   -0.7170 H   0  0
   -2.1840   -2.1950    2.4240 H   0  0
   -2.2660   -3.0690    0.9020 H   0  0
   -3.8690    0.3530   -0.2870 H   0  0
   -3.5820    0.7670    1.3930 H   0  0
   -4.3460   -1.4160    1.8710 H   0  0
   -4.1480   -1.9010    0.2130 H   0  0
   -2.7360    2.6350    1.1880 H   0  0
    0.0270    1.7050   -3.0040 H   0  0
   -3.7540    4.8240    0.3950 H   0  0
   -3.2440    5.7260   -1.7400 H   0  0
   -0.0660    3.4490   -5.0530 H   0  0
  1  2  2  0
  2  3  1  0
  2  4  1  0
  3  5  1  0
  3  6  1  0
  3  7  1  0
  4  8  1  0
  4  9  1  0
  4 10  1  0
  5 11  1  0
  8 12  2  0
 11 13  2  0
 12 14  1  0
 13 15  1  0
 13 16  1  0
 14 17  1  0
 15 18  1  0
 16 19  1  0
 17 20  1  0
 17 21  2  0
 20 22  1  0
 20 23  2  0
 21 24  1  0
 22 25  1  0
 22 26  1  0
 23 27  1  0
  8 11  1  0
 14 15  2  0
 18 19  1  0
 24 26  2  0
 25 27  2  0
  5 28  1  0
  6 29  1  0
  6 30  1  0
  6 31  1  0
  7 32  1  0
  7 33  1  0
  7 34  1  0
  9 35  1  0
  9 36  1  0
  9 37  1  0
 10 38  1  0
 10 39  1  0
 10 40  1  0
 12 41  1  0
 16 42  1  0
 16 43  1  0
 18 44  1  0
 18 45  1  0
 19 46  1  0
 19 47  1  0
 21 48  1  0
 23 49  1  0
 24 50  1  0
 26 51  1  0
 27 52  1  0
M  END
> <Name>
CHEMBL3582120

> <IC50 nM>
84

> <Molecule_ChEMBL_ID>
CHEMBL3582120

> <Smiles>
CC1(C)Nc2c(cc(-c3cccn4nccc34)c3c2CCC3)C(C)(C)C1=O

$$$$
CHEMBL4759758
  SciTegic08162514323D

 72 75  0  0  1  0            999 V2000
  -10.4470    1.4080    1.7580 F   0  0
   -9.5980    1.1500    0.7150 C   0  0
  -10.2640    0.4430   -0.2540 F   0  0
   -9.1490    2.3340    0.1880 F   0  0
   -8.4490    0.3440    1.2580 C   0  0
   -8.3990    0.0410    2.4280 O   0  0
   -7.4570   -0.0430    0.4020 N   0  0
   -6.3260   -0.8300    0.9160 C   0  0  2  0  0  0
   -5.0200   -0.4200    0.2380 C   0  0  2  0  0  0
   -6.6060   -2.3280    0.8010 C   0  0
   -3.9630   -1.2440    0.7070 O   0  0
   -4.6890    1.0060    0.5040 C   0  0
   -2.7480   -1.0120    0.2560 C   0  0
   -4.8220    1.9630   -0.5180 C   0  0
   -4.2420    1.4000    1.7770 C   0  0
   -1.6210   -1.3930    1.0100 C   0  0
   -2.5590   -0.3770   -0.9840 C   0  0
   -4.5100    3.3090   -0.2680 C   0  0
   -3.9300    2.7460    2.0290 C   0  0
   -0.3520   -1.1600    0.5630 N   0  0
   -1.2500   -0.1430   -1.4370 C   0  0
   -4.0630    3.7030    1.0060 C   0  0
   -0.1580   -0.5470   -0.6430 C   0  0
   -3.7320    5.1290    1.2720 C   0  0
    1.2360   -0.3010   -1.1150 C   0  0
    1.4450    0.2420   -2.1760 O   0  0
    2.2770   -0.6990   -0.3260 N   0  0
    3.6600   -0.4650   -0.7810 C   0  0  2  0  0  0
    4.6410   -1.4300   -0.0800 C   0  0
    4.0660    1.0060   -0.5660 C   0  0
    6.0470   -1.1230   -0.4370 N   0  0
    5.5100    1.2380   -1.0330 C   0  0
    6.9020   -2.1130   -0.8460 C   0  0
    6.5000    0.2850   -0.3440 C   0  0
    6.5180   -3.2560   -0.9320 O   0  0
    8.3280   -1.7460   -1.1820 C   0  0  1  0  0  0
    9.1470   -1.3930    0.0700 C   0  0
    9.1430   -2.9430   -1.6740 C   0  0
    9.6560   -2.6110    0.6040 O   0  0
    9.7330   -3.4750   -0.4020 C   0  0
   10.2110   -4.5820   -0.3260 O   0  0
   -7.4980    0.2090   -0.5640 H   0  0
   -6.2580   -0.6970    1.9960 H   0  0
   -5.1230   -0.5740   -0.8360 H   0  0
   -7.5330   -2.5880    1.3130 H   0  0
   -6.6800   -2.6270   -0.2440 H   0  0
   -5.8010   -2.9060    1.2560 H   0  0
   -5.1660    1.6660   -1.4980 H   0  0
   -4.1370    0.6700    2.5660 H   0  0
   -1.7580   -1.8790    1.9630 H   0  0
   -3.4060   -0.0740   -1.5840 H   0  0
   -4.6150    4.0390   -1.0570 H   0  0
   -3.5860    3.0430    3.0100 H   0  0
   -1.0880    0.3440   -2.3910 H   0  0
   -3.3970    5.3280    2.2890 H   0  0
   -4.6110    5.7460    1.0840 H   0  0
   -2.9450    5.4510    0.5900 H   0  0
    2.0940   -1.1470    0.5490 H   0  0
    3.6800   -0.6680   -1.8520 H   0  0
    4.5490   -1.3460    1.0060 H   0  0
    4.4040   -2.4650   -0.3380 H   0  0
    3.3950    1.6740   -1.1070 H   0  0
    3.9860    1.2680    0.4920 H   0  0
    5.8010    2.2730   -0.8480 H   0  0
    5.5630    1.1000   -2.1150 H   0  0
    6.5920    0.5470    0.7110 H   0  0
    7.4940    0.3960   -0.7830 H   0  0
    8.3240   -0.9390   -1.8980 H   0  0
    8.5800   -0.8710    0.8300 H   0  0
    9.9880   -0.7700   -0.1990 H   0  0
    8.5450   -3.6880   -2.1820 H   0  0
    9.9380   -2.6310   -2.3380 H   0  0
  1  2  1  0
  2  3  1  0
  2  4  1  0
  2  5  1  0
  5  6  2  0
  5  7  1  0
  7  8  1  0
  8  9  1  0
  8 10  1  0
  9 11  1  0
  9 12  1  0
 11 13  1  0
 12 14  2  0
 12 15  1  0
 13 16  2  0
 13 17  1  0
 14 18  1  0
 15 19  2  0
 16 20  1  0
 17 21  2  0
 18 22  2  0
 20 23  2  0
 22 24  1  0
 23 25  1  0
 25 26  2  0
 25 27  1  0
 28 27  1  0
 28 29  1  0
 28 30  1  0
 29 31  1  0
 30 32  1  0
 31 33  1  0
 31 34  1  0
 33 35  2  0
 36 33  1  0
 36 37  1  0
 36 38  1  0
 37 39  1  0
 38 40  1  0
 40 41  2  0
 19 22  1  0
 21 23  1  0
 32 34  1  0
 39 40  1  0
  7 42  1  0
  8 43  1  0
  9 44  1  0
 10 45  1  0
 10 46  1  0
 10 47  1  0
 14 48  1  0
 15 49  1  0
 16 50  1  0
 17 51  1  0
 18 52  1  0
 19 53  1  0
 21 54  1  0
 24 55  1  0
 24 56  1  0
 24 57  1  0
 27 58  1  0
 28 59  1  0
 29 60  1  0
 29 61  1  0
 30 62  1  0
 30 63  1  0
 32 64  1  0
 32 65  1  0
 34 66  1  0
 34 67  1  0
 36 68  1  0
 37 69  1  0
 37 70  1  0
 38 71  1  0
 38 72  1  0
M  END
> <Name>
CHEMBL4759758

> <IC50 nM>
7

> <Molecule_ChEMBL_ID>
CHEMBL4759758

> <Smiles>
Cc1ccc([C@@H](Oc2ccc(C(=O)N[C@H]3CCCN(C(=O)[C@H]4COC(=O)C4)C3)nc2)[C@H](C)NC(=O)C(F)(F)F)cc1

$$$$
CHEMBL3582110
  SciTegic08162514323D

 44 46  0  0  0  0            999 V2000
    3.6190    2.0880    0.3240 Cl  0  0
    2.1040    1.2810    0.2500 C   0  0
    1.9860   -0.0700   -0.1450 C   0  0
    0.9160    1.9750    0.5860 C   0  0
    3.1970   -0.8380   -0.5220 C   0  0
    0.7520   -0.7440   -0.1970 C   0  0
   -0.3530    1.3300    0.5350 C   0  0
    3.7190   -1.9000    0.1760 C   0  0
    3.9810   -0.6000   -1.6330 C   0  0
   -0.4350   -0.0510    0.1620 C   0  0
   -1.4630    2.0430    0.8440 N   0  0
    4.8240   -2.3050   -0.5200 O   0  0
    3.2290   -2.5470    1.4550 C   0  0
    4.9830   -1.5330   -1.5960 N   0  0
    3.8400    0.4470   -2.7170 C   0  0
   -1.7380   -0.7830    0.1330 C   0  0
   -2.8420    1.5080    0.6990 C   0  0
   -2.8790   -0.0060    0.7690 C   0  0
   -2.1290   -1.0610   -1.3240 C   0  0
   -1.6030   -2.1210    0.8790 C   0  0
   -3.7130    2.1060    1.8110 C   0  0
   -3.3960    1.9470   -0.6580 C   0  0
   -3.7930   -0.5780    1.3200 O   0  0
    0.9830    3.0140    0.8850 H   0  0
    0.7110   -1.7790   -0.5060 H   0  0
   -1.3710    2.9880    1.1720 H   0  0
    3.8400   -3.3790    1.8010 H   0  0
    2.2130   -2.9180    1.3090 H   0  0
    3.1970   -1.8010    2.2500 H   0  0
    3.8520   -0.0350   -3.6930 H   0  0
    2.9340    1.0290   -2.5450 H   0  0
    4.6860    1.1330   -2.6740 H   0  0
   -2.0590   -0.1660   -1.9410 H   0  0
   -3.1540   -1.4280   -1.3850 H   0  0
   -1.4780   -1.8180   -1.7600 H   0  0
   -1.2360   -1.9820    1.8960 H   0  0
   -0.9100   -2.7830    0.3610 H   0  0
   -2.5660   -2.6290    0.9370 H   0  0
   -3.3690    1.8070    2.8010 H   0  0
   -4.7480    1.7790    1.7070 H   0  0
   -3.7010    3.1930    1.7680 H   0  0
   -2.7150    1.7010   -1.4750 H   0  0
   -3.5620    3.0250   -0.6780 H   0  0
   -4.3500    1.4610   -0.8610 H   0  0
  1  2  1  0
  2  3  2  0
  2  4  1  0
  3  5  1  0
  3  6  1  0
  4  7  2  0
  5  8  2  0
  5  9  1  0
  6 10  2  0
  7 11  1  0
  8 12  1  0
  8 13  1  0
  9 14  2  0
  9 15  1  0
 10 16  1  0
 11 17  1  0
 16 18  1  0
 16 19  1  0
 16 20  1  0
 17 21  1  0
 17 22  1  0
 18 23  2  0
  7 10  1  0
 12 14  1  0
 17 18  1  0
  4 24  1  0
  6 25  1  0
 11 26  1  0
 13 27  1  0
 13 28  1  0
 13 29  1  0
 15 30  1  0
 15 31  1  0
 15 32  1  0
 19 33  1  0
 19 34  1  0
 19 35  1  0
 20 36  1  0
 20 37  1  0
 20 38  1  0
 21 39  1  0
 21 40  1  0
 21 41  1  0
 22 42  1  0
 22 43  1  0
 22 44  1  0
M  END
> <Name>
CHEMBL3582110

> <IC50 nM>
30

> <Molecule_ChEMBL_ID>
CHEMBL3582110

> <Smiles>
Cc1noc(C)c1-c1cc2c(cc1Cl)NC(C)(C)C(=O)C2(C)C

$$$$
CHEMBL3582115
  SciTegic08162514323D

 52 55  0  0  0  0            999 V2000
    3.7150   -2.3220   -0.7130 O   0  0
    2.7560   -1.8670   -0.1290 C   0  0
    1.9610   -2.7300    0.8380 C   0  0
    2.3280   -0.4240   -0.3480 C   0  0
    0.5100   -2.4160    0.8300 N   0  0
    2.1350   -4.2110    0.4730 C   0  0
    2.5060   -2.4980    2.2500 C   0  0
    0.8590   -0.2190   -0.1720 C   0  0
    3.0820    0.4410    0.6680 C   0  0
    2.7440   -0.0120   -1.7700 C   0  0
    0.0350   -1.2250    0.3850 C   0  0
    0.2480    0.9960   -0.5590 C   0  0
   -1.3750   -1.0660    0.5310 C   0  0
   -1.1490    1.1910   -0.4140 C   0  0
   -1.9530    0.1500    0.1270 C   0  0
   -2.4280   -2.0080    1.0720 C   0  0
   -1.4430    2.5570   -0.9100 C   0  0
   -3.4420    0.1560    0.3500 C   0  0
   -3.7700   -1.3030    0.7520 C   0  0
   -2.1170    2.8950   -2.0210 N   0  0
   -1.0200    3.7090   -0.2270 C   0  0
   -2.1390    4.2330   -2.0680 N   0  0
   -2.7230    1.9840   -3.0060 C   0  0
   -1.4900    4.7870   -1.0120 C   0  0
   -0.2310    3.7950    1.0660 C   0  0
   -0.0980   -3.1290    1.1900 H   0  0
    1.7850   -4.4240   -0.5370 H   0  0
    1.5740   -4.8460    1.1600 H   0  0
    3.1840   -4.5020    0.5310 H   0  0
    2.2770   -1.4980    2.6150 H   0  0
    3.5880   -2.6210    2.2720 H   0  0
    2.0760   -3.2150    2.9510 H   0  0
    2.7500    0.2500    1.6900 H   0  0
    2.9300    1.5000    0.4610 H   0  0
    4.1520    0.2420    0.6230 H   0  0
    2.1870   -0.5570   -2.5310 H   0  0
    3.8070   -0.2030   -1.9300 H   0  0
    2.5700    1.0530   -1.9280 H   0  0
    0.8770    1.7770   -0.9690 H   0  0
   -2.2910   -2.1290    2.1370 H   0  0
   -2.3670   -2.9780    0.6020 H   0  0
   -3.9730    0.4590   -0.5410 H   0  0
   -3.6860    0.8460    1.1470 H   0  0
   -4.4530   -1.3460    1.5860 H   0  0
   -4.2500   -1.8050   -0.0780 H   0  0
   -2.3480    2.1080   -4.0220 H   0  0
   -3.8010    2.1370   -3.0270 H   0  0
   -2.5370    0.9510   -2.7070 H   0  0
   -1.3810    5.8500   -0.8400 H   0  0
   -0.1130    2.7970    1.4860 H   0  0
    0.7230    4.2870    0.8770 H   0  0
   -0.7810    4.3990    1.7870 H   0  0
  1  2  2  0
  2  3  1  0
  2  4  1  0
  3  5  1  0
  3  6  1  0
  3  7  1  0
  4  8  1  0
  4  9  1  0
  4 10  1  0
  5 11  1  0
  8 12  2  0
 11 13  2  0
 12 14  1  0
 13 15  1  0
 13 16  1  0
 14 17  1  0
 15 18  1  0
 16 19  1  0
 17 20  1  0
 17 21  2  0
 20 22  1  0
 20 23  1  0
 21 24  1  0
 21 25  1  0
  8 11  1  0
 14 15  2  0
 18 19  1  0
 22 24  2  0
  5 26  1  0
  6 27  1  0
  6 28  1  0
  6 29  1  0
  7 30  1  0
  7 31  1  0
  7 32  1  0
  9 33  1  0
  9 34  1  0
  9 35  1  0
 10 36  1  0
 10 37  1  0
 10 38  1  0
 12 39  1  0
 16 40  1  0
 16 41  1  0
 18 42  1  0
 18 43  1  0
 19 44  1  0
 19 45  1  0
 23 46  1  0
 23 47  1  0
 23 48  1  0
 24 49  1  0
 25 50  1  0
 25 51  1  0
 25 52  1  0
M  END
> <Name>
CHEMBL3582115

> <IC50 nM>
128

> <Molecule_ChEMBL_ID>
CHEMBL3582115

> <Smiles>
Cc1cnn(C)c1-c1cc2c(c3c1CCC3)NC(C)(C)C(=O)C2(C)C

$$$$
CHEMBL4563408
  SciTegic08162514323D

 67 72  0  0  0  0            999 V2000
    5.5920    0.8520   -0.0310 Cl  0  0
    5.4140    1.8750    1.3440 C   0  0
    4.2790    2.7050    1.5210 C   0  0
    6.4340    1.8750    2.3130 C   0  0
    3.1720    2.7460    0.5330 C   0  0
    4.1880    3.5240    2.6640 C   0  0
    6.3340    2.6950    3.4490 C   0  0
    2.1910    1.7740    0.4670 N   0  0
    2.9840    3.7380   -0.4300 N   0  0
    5.2110    3.5180    3.6250 C   0  0
    1.4040    2.1840   -0.5430 C   0  0
    3.7680    4.8380   -0.6370 C   0  0
    1.8610    3.3560   -1.0920 C   0  0
    0.2230    1.7210   -1.1910 C   0  0
    5.1560    4.6920   -0.8180 C   0  0
    3.1890    6.1210   -0.6680 C   0  0
    1.3480    4.1020   -2.1390 N   0  0
   -0.4040    2.3630   -2.2520 N   0  0
   -0.2500    0.5740   -0.6740 N   0  0
    5.9630    5.8240   -1.0290 C   0  0
    3.9960    7.2540   -0.8790 C   0  0
    0.1850    3.5550   -2.7010 C   0  0
    0.6540   -0.5720   -0.4040 C   0  0
   -1.6930    0.4200   -0.3540 C   0  0
    5.3850    7.1080   -1.0610 C   0  0
    0.0720   -1.8910   -0.9470 C   0  0
   -2.2540   -0.9060   -0.8970 C   0  0
    6.3670    8.4870   -1.3160 Cl  0  0
   -1.3830   -2.1110   -0.4940 C   0  0
   -1.9260   -3.3650   -1.0510 N   0  0
   -3.0390   -3.9220   -0.4880 C   0  0
   -3.5760   -3.3910    0.4550 O   0  0
   -3.5410   -5.0820   -1.0040 N   0  0
   -4.6560   -5.6520   -0.4530 C   0  0
   -5.7400   -4.8480   -0.0390 C   0  0
   -4.7360   -7.0470   -0.2890 C   0  0
   -6.8600   -5.3960    0.5140 N   0  0
   -5.8970   -7.5980    0.2810 C   0  0
   -6.9490   -6.7480    0.6780 C   0  0
   -8.0370   -7.2660    1.2130 O   0  0
   -9.0960   -6.3830    1.5530 C   0  0
  -10.2050   -7.1090    1.9020 F   0  0
   -8.7150   -5.5960    2.6090 F   0  0
    7.3070    1.2460    2.1970 H   0  0
    3.3300    4.1640    2.8180 H   0  0
    7.1210    2.6920    4.1890 H   0  0
    5.1350    4.1490    4.4980 H   0  0
    5.6190    3.7150   -0.7970 H   0  0
    2.1250    6.2560   -0.5330 H   0  0
    7.0250    5.6960   -1.1700 H   0  0
    3.5390    8.2330   -0.9000 H   0  0
   -0.2770    4.0780   -3.5250 H   0  0
    0.7930   -0.6500    0.6740 H   0  0
    1.6440   -0.4020   -0.8360 H   0  0
   -2.2750    1.2560   -0.7500 H   0  0
   -1.8070    0.4490    0.7300 H   0  0
    0.1270   -1.8810   -2.0370 H   0  0
    0.7010   -2.7190   -0.6190 H   0  0
   -3.2740   -1.0370   -0.5330 H   0  0
   -2.3240   -0.8440   -1.9840 H   0  0
   -1.3990   -2.2030    0.5940 H   0  0
   -1.4880   -3.8100   -1.8320 H   0  0
   -3.0960   -5.5190   -1.7870 H   0  0
   -5.6990   -3.7730   -0.1560 H   0  0
   -3.9280   -7.6970   -0.5920 H   0  0
   -5.9790   -8.6660    0.4160 H   0  0
   -9.3320   -5.7500    0.6970 H   0  0
  1  2  1  0
  2  3  2  0
  2  4  1  0
  3  5  1  0
  3  6  1  0
  4  7  2  0
  5  8  2  0
  5  9  1  0
  6 10  2  0
  8 11  1  0
  9 12  1  0
  9 13  1  0
 11 14  1  0
 12 15  2  0
 12 16  1  0
 13 17  1  0
 14 18  2  0
 14 19  1  0
 15 20  1  0
 16 21  2  0
 17 22  2  0
 19 23  1  0
 19 24  1  0
 20 25  2  0
 23 26  1  0
 24 27  1  0
 25 28  1  0
 26 29  1  0
 29 30  1  0
 30 31  1  0
 31 32  2  0
 31 33  1  0
 33 34  1  0
 34 35  2  0
 34 36  1  0
 35 37  1  0
 36 38  2  0
 37 39  2  0
 39 40  1  0
 40 41  1  0
 41 42  1  0
 41 43  1  0
  7 10  1  0
 11 13  2  0
 18 22  1  0
 21 25  1  0
 27 29  1  0
 38 39  1  0
  4 44  1  0
  6 45  1  0
  7 46  1  0
 10 47  1  0
 15 48  1  0
 16 49  1  0
 20 50  1  0
 21 51  1  0
 22 52  1  0
 23 53  1  0
 23 54  1  0
 24 55  1  0
 24 56  1  0
 26 57  1  0
 26 58  1  0
 27 59  1  0
 27 60  1  0
 29 61  1  0
 30 62  1  0
 33 63  1  0
 35 64  1  0
 36 65  1  0
 38 66  1  0
 41 67  1  0
M  END
> <Name>
CHEMBL4563408

> <IC50 nM>
10000

> <Molecule_ChEMBL_ID>
CHEMBL4563408

> <Smiles>
O=C(Nc1ccc(OC(F)F)nc1)NC1CCN(c2ncnc3c2nc(-c2ccccc2Cl)n3-c2ccc(Cl)cc2)CC1

$$$$
CHEMBL4467278
  SciTegic08162514323D

 54 58  0  0  1  0            999 V2000
   -5.5180    2.6600    5.4140 F   0  0
   -4.7070    1.9140    4.6700 C   0  0
   -5.1600    0.6930    4.1390 C   0  0
   -3.3930    2.3440    4.4140 C   0  0
   -4.3050   -0.0940    3.3520 C   0  0
   -2.5330    1.5570    3.6270 C   0  0
   -2.9880    0.3360    3.0940 C   0  0
   -2.1580   -0.4260    2.3340 N   0  0
   -2.0310   -1.7770    2.4400 N   0  0
   -1.3300    0.0330    1.3600 C   0  0
   -1.1410   -2.3010    1.5530 C   0  0
   -0.7540   -1.1350    0.8990 C   0  0
   -1.0310    1.3710    0.8280 C   0  0
    0.2110   -1.0230   -0.2750 C   0  0
    0.0290    1.5080    0.0000 C   0  0
    1.0100    0.3460   -0.3140 C   0  0  2  0  0  0
    1.7420    0.5760   -1.7130 C   0  0  2  0  0  0
    2.0530    0.3770    0.8540 C   0  0
    2.0100    1.9570   -1.8980 O   0  0
    0.8730    0.1970   -2.8670 C   0  0
    3.1540   -0.0680   -1.8730 C   0  0
    2.7830   -0.9430    1.1920 C   0  0
   -0.2440    0.9860   -3.1950 C   0  0
    1.1720   -0.9470   -3.6290 C   0  0
    3.3670   -1.4730   -1.2990 C   0  0
    3.8160   -1.4410    0.1720 C   0  0
   -1.0630    0.6310   -4.2830 C   0  0
    0.3540   -1.3030   -4.7150 C   0  0
   -0.7620   -0.5140   -5.0410 C   0  0
   -6.1700    0.3590    4.3340 H   0  0
   -3.0390    3.2810    4.8200 H   0  0
   -4.6720   -1.0290    2.9510 H   0  0
   -1.5270    1.9060    3.4420 H   0  0
   -0.8540   -3.3360    1.4240 H   0  0
   -1.6410    2.2230    1.0940 H   0  0
   -0.4260   -1.1230   -1.1540 H   0  0
    0.8500   -1.8990   -0.2950 H   0  0
    0.1620    2.4880   -0.4300 H   0  0
    1.5510    0.6620    1.7790 H   0  0
    2.7850    1.1680    0.6860 H   0  0
    2.4410    2.0510   -2.7620 H   0  0
    3.9200    0.5680   -1.4240 H   0  0
    3.4300   -0.0920   -2.9320 H   0  0
    3.3110   -0.7950    2.1350 H   0  0
    2.0680   -1.7340    1.4140 H   0  0
   -0.4800    1.8670   -2.6150 H   0  0
    2.0270   -1.5570   -3.3810 H   0  0
    4.1780   -1.9380   -1.8610 H   0  0
    2.5100   -2.1190   -1.4690 H   0  0
    4.1370   -2.4410    0.4650 H   0  0
    4.7090   -0.8180    0.2480 H   0  0
   -1.9200    1.2360   -4.5330 H   0  0
    0.5840   -2.1820   -5.2990 H   0  0
   -1.3910   -0.7870   -5.8770 H   0  0
  1  2  1  0
  2  3  2  0
  2  4  1  0
  3  5  1  0
  4  6  2  0
  5  7  2  0
  7  8  1  0
  8  9  1  0
  8 10  1  0
  9 11  2  0
 10 12  2  0
 10 13  1  0
 12 14  1  0
 13 15  2  0
 16 14  1  0
 16 17  1  0
 16 18  1  0
 17 19  1  0
 17 20  1  0
 17 21  1  0
 18 22  1  0
 20 23  2  0
 20 24  1  0
 21 25  1  0
 22 26  1  0
 23 27  1  0
 24 28  2  0
 27 29  2  0
  6  7  1  0
 11 12  1  0
 16 15  1  0
 25 26  1  0
 28 29  1  0
  3 30  1  0
  4 31  1  0
  5 32  1  0
  6 33  1  0
 11 34  1  0
 13 35  1  0
 14 36  1  0
 14 37  1  0
 15 38  1  0
 18 39  1  0
 18 40  1  0
 19 41  1  0
 21 42  1  0
 21 43  1  0
 22 44  1  0
 22 45  1  0
 23 46  1  0
 24 47  1  0
 25 48  1  0
 25 49  1  0
 26 50  1  0
 26 51  1  0
 27 52  1  0
 28 53  1  0
 29 54  1  0
M  END
> <Name>
CHEMBL4467278

> <IC50 nM>
6

> <Molecule_ChEMBL_ID>
CHEMBL4467278

> <Smiles>
O[C@@]1(c2ccccc2)CCCCC[C@@]12C=Cc1c(cnn1-c1ccc(F)cc1)C2

$$$$
CHEMBL19954
  SciTegic08162514323D

 37 40  0  0  0  0            999 V2000
    3.5470    2.3090    2.0720 O   0  0
    3.0080    1.4840    1.1640 C   0  0
    4.9550    2.4880    2.0570 C   0  0
    1.6090    1.2420    1.1720 C   0  0
    3.8400    0.8570    0.1990 C   0  0
    1.0680    0.3610    0.1970 C   0  0
    3.2830   -0.0160   -0.7680 C   0  0
   -0.2130   -0.0370   -0.0100 C   0  0
    1.8870   -0.2480   -0.7480 C   0  0
   -1.4100    0.3010    0.6830 C   0  0
   -0.2250   -0.9100   -1.0980 C   0  0
    1.0940   -1.0570   -1.5780 N   0  0
   -2.6330   -0.2850    0.2360 C   0  0
   -1.4000    1.2290    1.8340 C   0  0
   -1.4260   -1.5000   -1.5610 C   0  0
   -2.6410   -1.1880   -0.8870 C   0  0
   -3.8670    0.0020    0.8850 C   0  0
   -1.3910   -2.4160   -2.7190 C   0  0
   -3.8770   -1.7560   -1.3070 C   0  0
   -5.0530   -0.5610    0.4630 N   0  0
   -5.0650   -1.4240   -0.6110 C   0  0
    5.2130    3.2290    2.8140 H   0  0
    5.4260    1.5100    2.1600 H   0  0
    5.2380    2.8910    1.0860 H   0  0
    1.0040    1.7320    1.9180 H   0  0
    4.9040    1.0450    0.1990 H   0  0
    3.9120   -0.4940   -1.5040 H   0  0
    1.4000   -1.6110   -2.3440 H   0  0
   -2.3850    1.4320    2.2540 H   0  0
   -0.9650    2.1800    1.5270 H   0  0
   -0.7770    0.8160    2.6270 H   0  0
   -3.9100    0.6740    1.7320 H   0  0
   -0.3980   -2.5640   -3.1430 H   0  0
   -2.0350   -2.0290   -3.5080 H   0  0
   -1.7750   -3.3930   -2.4220 H   0  0
   -3.9380   -2.4380   -2.1430 H   0  0
   -6.0040   -1.8550   -0.9300 H   0  0
  1  2  1  0
  1  3  1  0
  2  4  2  0
  2  5  1  0
  4  6  1  0
  5  7  2  0
  6  8  1  0
  6  9  2  0
  8 10  2  0
  8 11  1  0
  9 12  1  0
 10 13  1  0
 10 14  1  0
 11 15  2  0
 13 16  1  0
 13 17  2  0
 15 18  1  0
 16 19  2  0
 17 20  1  0
 19 21  1  0
  7  9  1  0
 11 12  1  0
 15 16  1  0
 20 21  2  0
  3 22  1  0
  3 23  1  0
  3 24  1  0
  4 25  1  0
  5 26  1  0
  7 27  1  0
 12 28  1  0
 14 29  1  0
 14 30  1  0
 14 31  1  0
 17 32  1  0
 18 33  1  0
 18 34  1  0
 18 35  1  0
 19 36  1  0
 21 37  1  0
M  END
> <Name>
CHEMBL19954

> <IC50 nM>
90000

> <Molecule_ChEMBL_ID>
CHEMBL19954

> <Smiles>
COc1ccc2[nH]c3c(C)c4ccncc4c(C)c3c2c1

$$$$
CHEMBL3264932
  SciTegic08162514323D

 83 87  0  0  0  0            999 V2000
   -1.7440   -7.9200   -0.5160 S   0  0
   -0.4590   -8.0820    0.1430 O   0  0
   -2.6040   -6.9480    0.1370 O   0  0
   -1.4550   -7.3850   -2.0180 N   0  0
   -2.5510   -9.4440   -0.5160 C   0  0
   -0.8160   -6.1880   -2.2070 C   0  0
   -3.9570   -9.4920   -0.5160 C   0  0
   -1.8030  -10.6350   -0.5160 C   0  0
   -0.4060   -5.4140   -1.1020 C   0  0
   -0.5610   -5.7150   -3.5100 C   0  0
   -4.6130  -10.7370   -0.5160 C   0  0
   -2.4630  -11.8750   -0.5160 C   0  0
    0.2320   -4.2190   -1.2700 N   0  0
    0.0980   -4.4850   -3.6680 C   0  0
   -3.8670  -11.9280   -0.5160 C   0  0
    0.4840   -3.7500   -2.5270 C   0  0
    1.1660   -2.4750   -2.6880 C   0  0
    1.4360   -1.9770   -3.9770 C   0  0
    1.5570   -1.7360   -1.5550 C   0  0
    2.0940   -0.7440   -4.1310 C   0  0
    2.2150   -0.5040   -1.7130 C   0  0
    2.4840   -0.0060   -3.0000 C   0  0
    3.1800    1.2970   -3.1640 C   0  0
    2.2500    2.3610   -3.7480 C   0  0
    1.1060    2.7280   -2.8030 C   0  0
    1.5880    3.4390   -1.5660 C   0  0
    1.7850    2.8460   -0.4410 N   0  0
    1.8690    4.8050   -1.5180 N   0  0
    2.1780    3.6780    0.3850 N   0  0
    2.2640    4.9510   -0.1990 C   0  0
    1.7720    5.8100   -2.5720 C   0  0
    2.5020    3.3730    1.7750 C   0  0
    2.6150    5.9750    0.3420 O   0  0
    0.4470    6.5700   -2.5270 C   0  0
    1.4710    3.8980    2.7070 C   0  0
    1.6620    5.1370    3.3440 C   0  0
    0.3010    3.1560    2.9510 C   0  0
    0.6880    5.6330    4.2270 C   0  0
   -0.6760    3.6540    3.8340 C   0  0
   -0.4820    4.8930    4.4710 C   0  0
   -1.5160    5.4180    5.4040 C   0  0
   -2.2680    6.1860    4.3160 C   0  0
   -0.9040    6.3380    6.4610 C   0  0
   -2.3500    4.2910    6.0140 C   0  0
   -1.7440   -7.9280   -2.8070 H   0  0
   -4.5310   -8.5780   -0.5160 H   0  0
   -0.7250  -10.5960   -0.5160 H   0  0
   -0.5940   -5.7580   -0.0940 H   0  0
   -0.8590   -6.2800   -4.3810 H   0  0
   -5.6930  -10.7760   -0.5160 H   0  0
   -1.8890  -12.7910   -0.5160 H   0  0
    0.2990   -4.1130   -4.6640 H   0  0
   -4.3730  -12.8810   -0.5160 H   0  0
    1.1430   -2.5310   -4.8580 H   0  0
    1.3570   -2.1040   -0.5590 H   0  0
    2.2970   -0.3670   -5.1230 H   0  0
    2.5120    0.0580   -0.8400 H   0  0
    3.5780    1.6190   -2.2030 H   0  0
    4.0570    1.1620   -3.7970 H   0  0
    2.8150    3.2480   -4.0350 H   0  0
    1.8630    2.0450   -4.7170 H   0  0
    0.6310    1.7870   -2.5270 H   0  0
    0.3630    3.3400   -3.3160 H   0  0
    2.6150    6.4980   -2.4940 H   0  0
    1.9120    5.3340   -3.5430 H   0  0
    3.4710    3.8050    2.0230 H   0  0
    2.5900    2.2930    1.8980 H   0  0
    0.3280    7.0820   -1.5720 H   0  0
    0.3980    7.3050   -3.3320 H   0  0
   -0.3940    5.8890   -2.6490 H   0  0
    2.5590    5.7110    3.1600 H   0  0
    0.1470    2.2050    2.4650 H   0  0
    0.8400    6.5840    4.7130 H   0  0
   -1.5720    3.0800    4.0180 H   0  0
   -1.6350    6.9300    3.8320 H   0  0
   -3.1290    6.7050    4.7380 H   0  0
   -2.6330    5.5080    3.5470 H   0  0
   -0.0330    5.8850    6.9380 H   0  0
   -1.6310    6.5640    7.2400 H   0  0
   -0.5860    7.2790    6.0140 H   0  0
   -1.7230    3.5000    6.4260 H   0  0
   -3.0000    3.8440    5.2620 H   0  0
   -2.9800    4.6700    6.8180 H   0  0
  1  2  2  0
  1  3  2  0
  1  4  1  0
  1  5  1  0
  4  6  1  0
  5  7  2  0
  5  8  1  0
  6  9  2  0
  6 10  1  0
  7 11  1  0
  8 12  2  0
  9 13  1  0
 10 14  2  0
 11 15  2  0
 13 16  2  0
 16 17  1  0
 17 18  2  0
 17 19  1  0
 18 20  1  0
 19 21  2  0
 20 22  2  0
 22 23  1  0
 23 24  1  0
 24 25  1  0
 25 26  1  0
 26 27  2  0
 26 28  1  0
 27 29  1  0
 28 30  1  0
 28 31  1  0
 29 32  1  0
 30 33  2  0
 31 34  1  0
 32 35  1  0
 35 36  2  0
 35 37  1  0
 36 38  1  0
 37 39  2  0
 38 40  2  0
 40 41  1  0
 41 42  1  0
 41 43  1  0
 41 44  1  0
 12 15  1  0
 14 16  1  0
 21 22  1  0
 29 30  1  0
 39 40  1  0
  4 45  1  0
  7 46  1  0
  8 47  1  0
  9 48  1  0
 10 49  1  0
 11 50  1  0
 12 51  1  0
 14 52  1  0
 15 53  1  0
 18 54  1  0
 19 55  1  0
 20 56  1  0
 21 57  1  0
 23 58  1  0
 23 59  1  0
 24 60  1  0
 24 61  1  0
 25 62  1  0
 25 63  1  0
 31 64  1  0
 31 65  1  0
 32 66  1  0
 32 67  1  0
 34 68  1  0
 34 69  1  0
 34 70  1  0
 36 71  1  0
 37 72  1  0
 38 73  1  0
 39 74  1  0
 42 75  1  0
 42 76  1  0
 42 77  1  0
 43 78  1  0
 43 79  1  0
 43 80  1  0
 44 81  1  0
 44 82  1  0
 44 83  1  0
M  END
> <Name>
CHEMBL3264932

> <IC50 nM>
32500

> <Molecule_ChEMBL_ID>
CHEMBL3264932

> <Smiles>
CCn1c(CCCc2ccc(-c3ccc(NS(=O)(=O)c4ccccc4)cn3)cc2)nn(Cc2ccc(C(C)(C)C)cc2)c1=O

$$$$
CHEMBL5276670
  SciTegic08162514323D

 46 49  0  0  0  0            999 V2000
    3.2750   -0.5920    0.4710 S   0  0
    3.4380    0.1170   -0.7870 O   0  0
    3.2500    0.2910    1.6250 O   0  0
    1.8540   -1.3630    0.4140 N   0  0
    4.6000   -1.6840    0.6520 C   0  0
    0.7170   -0.6660    0.2770 C   0  0
    4.8590   -2.6410   -0.3460 C   0  0
    5.4120   -1.6150    1.7970 C   0  0
   -0.5310   -1.3300    0.2270 C   0  0
    0.7500    0.7440    0.1800 C   0  0
    5.9360   -3.5330   -0.1990 C   0  0
    6.4900   -2.5040    1.9490 C   0  0
   -1.7400   -0.6020    0.0820 C   0  0
   -0.4470    1.4810    0.0350 C   0  0
    6.7480   -3.4610    0.9470 C   0  0
   -1.7150    0.8280   -0.0160 C   0  0
   -3.0220   -1.3520    0.0310 C   0  0
    7.8500   -4.3730    1.1000 C   0  0
   -2.8790    1.5430   -0.1540 N   0  0
   -4.2030   -0.4900    0.4920 C   0  0
    8.7380   -5.1070    1.2230 N   0  0
   -2.8890    2.9140   -0.2300 C   0  0
   -4.2030    0.8590   -0.2340 C   0  0
   -2.0140    3.5610    0.2990 O   0  0
   -3.9630    3.5760   -0.9550 C   0  0
   -4.4040    4.7760   -0.4840 O   0  0
   -4.6330    3.1520   -2.1060 C   0  0
   -5.3890    5.1190   -1.3670 C   0  0
   -5.5610    4.1580   -2.3710 C   0  0
    1.8220   -2.3610    0.4820 H   0  0
    4.2320   -2.6910   -1.2230 H   0  0
    5.2110   -0.8790    2.5610 H   0  0
   -0.5740   -2.4080    0.3010 H   0  0
    1.6890    1.2770    0.2130 H   0  0
    6.1250   -4.2640   -0.9730 H   0  0
    7.1090   -2.4410    2.8320 H   0  0
   -0.3610    2.5570   -0.0350 H   0  0
   -3.1860   -1.6840   -0.9940 H   0  0
   -2.9690   -2.2500    0.6480 H   0  0
   -4.1450   -0.3280    1.5680 H   0  0
   -5.1430   -1.0140    0.3110 H   0  0
   -4.4530    0.7150   -1.2870 H   0  0
   -4.9820    1.4960    0.1880 H   0  0
   -4.4690    2.2420   -2.6680 H   0  0
   -5.9630    6.0330   -1.2870 H   0  0
   -6.2700    4.1920   -3.1880 H   0  0
  1  2  2  0
  1  3  2  0
  1  4  1  0
  1  5  1  0
  4  6  1  0
  5  7  2  0
  5  8  1  0
  6  9  2  0
  6 10  1  0
  7 11  1  0
  8 12  2  0
  9 13  1  0
 10 14  2  0
 11 15  2  0
 13 16  2  0
 13 17  1  0
 15 18  1  0
 16 19  1  0
 17 20  1  0
 18 21  3  0
 19 22  1  0
 19 23  1  0
 22 24  2  0
 22 25  1  0
 25 26  1  0
 25 27  2  0
 26 28  1  0
 27 29  1  0
 12 15  1  0
 14 16  1  0
 20 23  1  0
 28 29  2  0
  4 30  1  0
  7 31  1  0
  8 32  1  0
  9 33  1  0
 10 34  1  0
 11 35  1  0
 12 36  1  0
 14 37  1  0
 17 38  1  0
 17 39  1  0
 20 40  1  0
 20 41  1  0
 23 42  1  0
 23 43  1  0
 27 44  1  0
 28 45  1  0
 29 46  1  0
M  END
> <Name>
CHEMBL5276670

> <IC50 nM>
10000

> <Molecule_ChEMBL_ID>
CHEMBL5276670

> <Smiles>
N#Cc1ccc(S(=O)(=O)Nc2ccc3c(c2)CCCN3C(=O)c2ccco2)cc1

$$$$
CHEMBL2022858
  SciTegic08162514323D

 68 73  0  0  1  0            999 V2000
   -9.2110   -1.1860    2.9300 F   0  0
   -8.2380   -0.6190    2.2190 C   0  0
   -7.0000   -0.3340    2.8220 C   0  0
   -8.4470   -0.3050    0.8650 C   0  0
   -5.9730    0.2640    2.0740 C   0  0
   -7.4220    0.2930    0.1130 C   0  0
   -6.1800    0.5780    0.7170 C   0  0
   -5.1880    1.1560   -0.0100 N   0  0
   -5.3580    2.2170   -0.8420 N   0  0
   -3.8850    0.7730   -0.0160 C   0  0
   -4.2050    2.5980   -1.4570 C   0  0
   -3.3280    1.6600   -0.9140 C   0  0
   -3.1450   -0.2810    0.6880 C   0  0
   -1.8500    1.5270   -1.2460 C   0  0
   -1.7970   -0.3260    0.5900 C   0  0
   -0.9860    0.7500   -0.1820 C   0  0  1  0  0  0
   -1.0860   -1.4730    1.2930 C   0  0
    0.2730    0.0920   -0.8520 C   0  0  1  0  0  0
   -0.5220    1.7580    0.8790 C   0  0
    0.1520   -1.9900    0.5640 C   0  0
    1.2990    0.9590   -1.6760 C   0  0  1  0  0  0
    1.0270   -0.8050    0.1720 C   0  0  1  0  0  0
    0.7690    2.1600   -2.1930 O   0  0
    2.6150    1.2870   -0.9410 C   0  0
    2.3770   -1.1990   -0.4320 C   0  0  1  0  0  0
    3.3010    0.0350   -0.3440 C   0  0  1  0  0  0
    3.2500   -2.3030    0.1520 C   0  0
    4.5640   -0.5410   -1.0230 C   0  0  1  0  0  0
    3.6840    0.3300    1.1210 C   0  0
    4.6290   -1.9770   -0.4470 C   0  0
    4.3710   -0.6090   -2.4280 O   0  0
    5.8260    0.2580   -0.7990 C   0  0
    5.7770    1.4370   -0.5370 O   0  0
    7.1470   -0.4570   -0.9100 C   0  0
    7.6450   -0.7270    0.3810 O   0  0
   -6.8360   -0.5740    3.8630 H   0  0
   -9.3970   -0.5230    0.3980 H   0  0
   -5.0270    0.4750    2.5550 H   0  0
   -7.6020    0.5250   -0.9260 H   0  0
   -4.0610    3.4060   -2.1620 H   0  0
   -3.6820   -1.0100    1.2790 H   0  0
   -1.7890    1.0270   -2.2130 H   0  0
   -1.4790    2.5410   -1.3890 H   0  0
   -0.7970   -1.1310    2.2870 H   0  0
   -1.7720   -2.3070    1.4490 H   0  0
   -0.1450   -0.5860   -1.5980 H   0  0
   -1.3670    2.3220    1.2730 H   0  0
   -0.0200    1.2480    1.7010 H   0  0
    0.1840    2.4710    0.4490 H   0  0
   -0.1330   -2.5590   -0.3200 H   0  0
    0.6990   -2.6740    1.2150 H   0  0
    1.5740    0.3850   -2.5630 H   0  0
    1.2110   -0.2380    1.0860 H   0  0
    1.3980    2.4900   -2.8520 H   0  0
    3.3090    1.8070   -1.6020 H   0  0
    2.3850    1.9980   -0.1450 H   0  0
    2.1910   -1.4860   -1.4590 H   0  0
    3.2710   -2.2560    1.2310 H   0  0
    2.9020   -3.2870   -0.1290 H   0  0
    4.2190   -0.5020    1.5760 H   0  0
    2.7930    0.5200    1.7190 H   0  0
    4.3200    1.2130    1.1820 H   0  0
    5.3750   -2.0510    0.3320 H   0  0
    4.9060   -2.7070   -1.1950 H   0  0
    5.1110   -1.1190   -2.7950 H   0  0
    7.8670    0.1760   -1.4280 H   0  0
    7.0100   -1.4080   -1.4260 H   0  0
    8.4920   -1.1860    0.2700 H   0  0
  1  2  1  0
  2  3  2  0
  2  4  1  0
  3  5  1  0
  4  6  2  0
  5  7  2  0
  7  8  1  0
  8  9  1  0
  8 10  1  0
  9 11  2  0
 10 12  2  0
 10 13  1  0
 12 14  1  0
 13 15  2  0
 14 16  1  0
 15 17  1  0
 16 18  1  0
 16 19  1  0
 17 20  1  0
 18 21  1  0
 18 22  1  0
 21 23  1  0
 21 24  1  0
 22 25  1  0
 24 26  1  0
 25 27  1  0
 26 28  1  0
 26 29  1  0
 27 30  1  0
 28 31  1  0
 28 32  1  0
 32 33  2  0
 32 34  1  0
 34 35  1  0
  6  7  1  0
 11 12  1  0
 15 16  1  0
 22 20  1  0
 25 26  1  0
 28 30  1  0
  3 36  1  0
  4 37  1  0
  5 38  1  0
  6 39  1  0
 11 40  1  0
 13 41  1  0
 14 42  1  0
 14 43  1  0
 17 44  1  0
 17 45  1  0
 18 46  1  0
 19 47  1  0
 19 48  1  0
 19 49  1  0
 20 50  1  0
 20 51  1  0
 21 52  1  0
 22 53  1  0
 23 54  1  0
 24 55  1  0
 24 56  1  0
 25 57  1  0
 27 58  1  0
 27 59  1  0
 29 60  1  0
 29 61  1  0
 29 62  1  0
 30 63  1  0
 30 64  1  0
 31 65  1  0
 34 66  1  0
 34 67  1  0
 35 68  1  0
M  END
> <Name>
CHEMBL2022858

> <IC50 nM>
0.4

> <Molecule_ChEMBL_ID>
CHEMBL2022858

> <Smiles>
C[C@]12Cc3cnn(-c4ccc(F)cc4)c3C=C1CC[C@@H]1[C@@H]2[C@@H](O)C[C@@]2(C)[C@H]1CC[C@]2(O)C(=O)CO

$$$$
CHEMBL5271610
  SciTegic08162514323D

 52 55  0  0  0  0            999 V2000
    6.9940   -2.6040   -1.9690 Cl  0  0
    5.9360   -2.3710   -0.6330 C   0  0
    6.1330   -3.0570    0.5860 C   0  0
    4.8540   -1.4820   -0.7660 C   0  0
    5.2500   -2.8400    1.6600 C   0  0
    7.2640   -4.0100    0.7660 C   0  0
    3.9750   -1.2730    0.3100 C   0  0
    4.1700   -1.9510    1.5270 C   0  0
    2.6520   -0.1800    0.1350 S   0  0
    3.3480   -1.7560    2.5370 O   0  0
    2.8090    0.5270   -1.1250 O   0  0
    2.6310    0.7010    1.2870 O   0  0
    1.2290   -0.9510    0.0840 N   0  0
    3.5940   -2.4610    3.7440 C   0  0
    0.0920   -0.2540   -0.0530 C   0  0
   -1.1560   -0.9180   -0.1040 C   0  0
    0.1250    1.1560   -0.1520 C   0  0
   -2.3650   -0.1890   -0.2480 C   0  0
   -1.0720    1.8930   -0.2950 C   0  0
   -2.3400    1.2400   -0.3460 C   0  0
   -3.6470   -0.9390   -0.2990 C   0  0
   -3.5040    1.9530   -0.4840 N   0  0
   -4.8280   -0.0800    0.1600 C   0  0
   -3.5140    3.3260   -0.5610 C   0  0
   -4.8280    1.2720   -0.5650 C   0  0
   -2.6390    3.9730   -0.0330 O   0  0
   -4.5840    3.9980   -1.2810 C   0  0
   -5.3160    5.4430   -0.7640 S   0  0
   -5.1520    3.5510   -2.4860 C   0  0
   -6.3730    5.5000   -2.0940 C   0  0
   -6.1720    4.4080   -2.9510 C   0  0
    4.6880   -0.9510   -1.6930 H   0  0
    5.3990   -3.3610    2.5960 H   0  0
    7.3070   -4.4730    1.7520 H   0  0
    8.2070   -3.4880    0.6010 H   0  0
    7.1900   -4.8050    0.0250 H   0  0
    1.1970   -1.9490    0.1560 H   0  0
    3.4880   -3.5270    3.5450 H   0  0
    4.5590   -2.1390    4.1390 H   0  0
    2.8280   -2.1820    4.4670 H   0  0
   -1.1990   -1.9960   -0.0310 H   0  0
    1.0650    1.6900   -0.1170 H   0  0
   -0.9860    2.9670   -0.3650 H   0  0
   -3.8110   -1.2710   -1.3240 H   0  0
   -3.5940   -1.8380    0.3180 H   0  0
   -4.7700    0.0840    1.2380 H   0  0
   -5.7680   -0.6020   -0.0200 H   0  0
   -5.0780    1.1270   -1.6170 H   0  0
   -5.6070    1.9080   -0.1430 H   0  0
   -4.8440    2.6520   -3.0060 H   0  0
   -7.1020    6.2850   -2.2480 H   0  0
   -6.7320    4.2420   -3.8600 H   0  0
  1  2  1  0
  2  3  2  0
  2  4  1  0
  3  5  1  0
  3  6  1  0
  4  7  2  0
  5  8  2  0
  7  9  1  0
  8 10  1  0
  9 11  2  0
  9 12  2  0
  9 13  1  0
 10 14  1  0
 13 15  1  0
 15 16  2  0
 15 17  1  0
 16 18  1  0
 17 19  2  0
 18 20  2  0
 18 21  1  0
 20 22  1  0
 21 23  1  0
 22 24  1  0
 22 25  1  0
 24 26  2  0
 24 27  1  0
 27 28  1  0
 27 29  2  0
 28 30  1  0
 29 31  1  0
  7  8  1  0
 19 20  1  0
 23 25  1  0
 30 31  2  0
  4 32  1  0
  5 33  1  0
  6 34  1  0
  6 35  1  0
  6 36  1  0
 13 37  1  0
 14 38  1  0
 14 39  1  0
 14 40  1  0
 16 41  1  0
 17 42  1  0
 19 43  1  0
 21 44  1  0
 21 45  1  0
 23 46  1  0
 23 47  1  0
 25 48  1  0
 25 49  1  0
 29 50  1  0
 30 51  1  0
 31 52  1  0
M  END
> <Name>
CHEMBL5271610

> <IC50 nM>
170

> <Molecule_ChEMBL_ID>
CHEMBL5271610

> <Smiles>
COc1cc(C)c(Cl)cc1S(=O)(=O)Nc1ccc2c(c1)CCCN2C(=O)c1cccs1

$$$$
CHEMBL3970276
  SciTegic08162514323D

 61 64  0  0  1  0            999 V2000
    6.9940    5.8030   -1.8110 F   0  0
    6.5060    4.5680   -1.7150 C   0  0
    7.0390    3.5370   -2.5100 C   0  0
    5.4570    4.2930   -0.8200 C   0  0
    6.5250    2.2320   -2.4100 C   0  0
    4.9410    2.9900   -0.7190 C   0  0
    5.4750    1.9550   -1.5140 C   0  0
    4.9760    0.6950   -1.4160 N   0  0
    5.7260   -0.4590   -1.3930 N   0  0
    3.6700    0.3420   -1.3260 C   0  0
    4.9960   -1.6270   -1.2870 C   0  0
    3.7440   -1.0370   -1.2520 C   0  0
    2.4470    1.0510   -1.2990 C   0  0
    2.5470   -1.7930   -1.1450 C   0  0
    1.2500    0.3010   -1.1930 C   0  0
    1.2990   -1.1170   -1.1150 C   0  0
    0.1600   -1.8190   -1.0140 O   0  0
   -1.0080   -1.1370   -0.5840 C   0  0  2  0  0  0
   -0.7660   -0.5290    0.7500 C   0  0
   -2.1860   -2.1130   -0.5530 C   0  0  1  0  0  0
   -1.2050    0.7810    1.0180 C   0  0
   -0.0960   -1.2620    1.7460 C   0  0
   -3.4340   -1.4200   -0.2010 N   0  0
   -2.3400   -2.8930   -1.8570 C   0  0
   -0.9750    1.3550    2.2790 C   0  0
    0.1330   -0.6860    3.0080 C   0  0
   -3.8540   -1.4160    1.1000 C   0  0
   -0.3070    0.6230    3.2750 C   0  0
   -3.2070   -1.9750    1.9530 O   0  0
   -5.1350   -0.7030    1.4410 C   0  0
   -5.9890   -1.8910    0.9960 C   0  0
   -5.3580    0.5410    0.5800 C   0  0
   -5.2600   -0.4140    2.9380 C   0  0
    7.8460    3.7440   -3.1970 H   0  0
    5.0450    5.0820   -0.2090 H   0  0
    6.9490    1.4550   -3.0290 H   0  0
    4.1350    2.7990   -0.0250 H   0  0
    5.3480   -2.6490   -1.2500 H   0  0
    2.4240    2.1290   -1.3590 H   0  0
    2.5740   -2.8710   -1.0860 H   0  0
    0.2970    0.8100   -1.1700 H   0  0
   -1.2290   -0.3520   -1.3070 H   0  0
   -2.0040   -2.9120    0.1660 H   0  0
   -1.7190    1.3500    0.2560 H   0  0
    0.2440   -2.2680    1.5490 H   0  0
   -3.9710   -0.9570   -0.9060 H   0  0
   -3.1720   -3.5940   -1.7910 H   0  0
   -2.5120   -2.2150   -2.6930 H   0  0
   -1.4380   -3.4670   -2.0740 H   0  0
   -1.3130    2.3610    2.4840 H   0  0
    0.6460   -1.2500    3.7730 H   0  0
   -0.1310    1.0640    4.2440 H   0  0
   -5.7090   -2.8090    1.5140 H   0  0
   -5.8790   -2.0650   -0.0740 H   0  0
   -7.0430   -1.7030    1.1970 H   0  0
   -4.4850    1.1930    0.5740 H   0  0
   -6.2050    1.1190    0.9490 H   0  0
   -5.5730    0.2600   -0.4510 H   0  0
   -4.5160    0.3080    3.2750 H   0  0
   -5.1270   -1.3260    3.5180 H   0  0
   -6.2460   -0.0120    3.1720 H   0  0
  1  2  1  0
  2  3  2  0
  2  4  1  0
  3  5  1  0
  4  6  2  0
  5  7  2  0
  7  8  1  0
  8  9  1  0
  8 10  1  0
  9 11  2  0
 10 12  1  0
 10 13  2  0
 12 14  2  0
 13 15  1  0
 14 16  1  0
 16 17  1  0
 18 17  1  0
 18 19  1  0
 18 20  1  0
 19 21  2  0
 19 22  1  0
 20 23  1  0
 20 24  1  0
 21 25  1  0
 22 26  2  0
 23 27  1  0
 25 28  2  0
 27 29  2  0
 27 30  1  0
 30 31  1  0
 30 32  1  0
 30 33  1  0
  6  7  1  0
 11 12  1  0
 15 16  2  0
 26 28  1  0
  3 34  1  0
  4 35  1  0
  5 36  1  0
  6 37  1  0
 11 38  1  0
 13 39  1  0
 14 40  1  0
 15 41  1  0
 18 42  1  0
 20 43  1  0
 21 44  1  0
 22 45  1  0
 23 46  1  0
 24 47  1  0
 24 48  1  0
 24 49  1  0
 25 50  1  0
 26 51  1  0
 28 52  1  0
 31 53  1  0
 31 54  1  0
 31 55  1  0
 32 56  1  0
 32 57  1  0
 32 58  1  0
 33 59  1  0
 33 60  1  0
 33 61  1  0
M  END
> <Name>
CHEMBL3970276

> <IC50 nM>
0.66

> <Molecule_ChEMBL_ID>
CHEMBL3970276

> <Smiles>
C[C@H](NC(=O)C(C)(C)C)[C@H](Oc1ccc2c(cnn2-c2ccc(F)cc2)c1)c1ccccc1

$$$$
CHEMBL2087280
  SciTegic08162514323D

 51 54  0  0  0  0            999 V2000
    2.5700    1.5730    3.1560 O   0  0
    1.6390    1.0220    2.4030 C   0  0
    3.7960    1.0980    3.0700 C   0  0
    0.3340    0.8580    2.8990 C   0  0
    1.9460    0.5960    1.0980 C   0  0
    4.8980    1.9690    3.1510 C   0  0
    4.0100   -0.2810    2.8960 C   0  0
   -0.6600    0.2720    2.0960 C   0  0
    0.9550    0.0100    0.2940 C   0  0
    6.2060    1.4630    3.0590 C   0  0
    5.3170   -0.7880    2.8040 C   0  0
   -0.3500   -0.1530    0.7920 C   0  0
    6.4160    0.0850    2.8850 C   0  0
   -1.3990   -0.7730   -0.0580 C   0  0
   -1.5980   -0.0230   -1.3060 N   0  0
   -1.9270    1.3050   -1.2620 C   0  0
   -1.4370   -0.7210   -2.5900 C   0  0
   -1.5920    2.1530   -2.3360 C   0  0
   -2.6030    1.8280   -0.1420 C   0  0
   -2.1330   -2.0350   -2.5900 C   0  0
   -1.9310    3.5160   -2.2890 C   0  0
   -2.9410    3.1920   -0.0980 C   0  0
   -3.5380   -2.0870   -2.5900 C   0  0
   -1.3860   -3.2270   -2.5900 C   0  0
   -2.6050    4.0350   -1.1710 C   0  0
   -4.1960   -3.3290   -2.5900 C   0  0
   -2.0450   -4.4690   -2.5900 C   0  0
   -3.4490   -4.5200   -2.5900 C   0  0
    0.0910    1.1830    3.9000 H   0  0
    2.9470    0.7190    0.7110 H   0  0
    4.7400    3.0290    3.2850 H   0  0
    3.1680   -0.9550    2.8330 H   0  0
   -1.6600    0.1500    2.4850 H   0  0
    1.2000   -0.3150   -0.7080 H   0  0
    7.0500    2.1350    3.1220 H   0  0
    5.4780   -1.8470    2.6700 H   0  0
    7.4210   -0.3040    2.8150 H   0  0
   -1.1140   -1.7980   -0.2960 H   0  0
   -2.3390   -0.8080    0.4930 H   0  0
   -1.8370   -0.0980   -3.3890 H   0  0
   -0.3750   -0.8730   -2.7850 H   0  0
   -1.0730    1.7710   -3.2040 H   0  0
   -2.8700    1.1950    0.6920 H   0  0
   -1.6730    4.1650   -3.1130 H   0  0
   -3.4600    3.5920    0.7610 H   0  0
   -4.1180   -1.1750   -2.5900 H   0  0
   -0.3070   -3.1940   -2.5900 H   0  0
   -2.8650    5.0840   -1.1360 H   0  0
   -5.2750   -3.3680   -2.5900 H   0  0
   -1.4710   -5.3840   -2.5900 H   0  0
   -3.9550   -5.4740   -2.5900 H   0  0
  1  2  1  0
  1  3  1  0
  2  4  2  0
  2  5  1  0
  3  6  2  0
  3  7  1  0
  4  8  1  0
  5  9  2  0
  6 10  1  0
  7 11  2  0
  8 12  2  0
 10 13  2  0
 12 14  1  0
 14 15  1  0
 15 16  1  0
 15 17  1  0
 16 18  2  0
 16 19  1  0
 17 20  1  0
 18 21  1  0
 19 22  2  0
 20 23  2  0
 20 24  1  0
 21 25  2  0
 23 26  1  0
 24 27  2  0
 26 28  2  0
  9 12  1  0
 11 13  1  0
 22 25  1  0
 27 28  1  0
  4 29  1  0
  5 30  1  0
  6 31  1  0
  7 32  1  0
  8 33  1  0
  9 34  1  0
 10 35  1  0
 11 36  1  0
 13 37  1  0
 14 38  1  0
 14 39  1  0
 17 40  1  0
 17 41  1  0
 18 42  1  0
 19 43  1  0
 21 44  1  0
 22 45  1  0
 23 46  1  0
 24 47  1  0
 25 48  1  0
 26 49  1  0
 27 50  1  0
 28 51  1  0
M  END
> <Name>
CHEMBL2087280

> <IC50 nM>
10000

> <Molecule_ChEMBL_ID>
CHEMBL2087280

> <Smiles>
c1ccc(CN(Cc2ccc(Oc3ccccc3)cc2)c2ccccc2)cc1

$$$$
CHEMBL2087289
  SciTegic08162514323D

 57 60  0  0  0  0            999 V2000
    3.3300    2.3070   -0.7950 Br  0  0
    1.5740    2.1840   -0.0920 C   0  0
    0.5080    1.5330   -0.7720 C   0  0
    1.3460    2.7720    1.1660 C   0  0
    0.7190    0.9530   -2.0040 N   0  0
   -0.7790    1.4880   -0.1680 C   0  0
    0.0740    2.7230    1.7540 C   0  0
    0.2670    1.6110   -3.2380 C   0  0
    1.4060   -0.3440   -2.0980 C   0  0
   -2.2760    0.6500   -0.9790 Br  0  0
   -0.9830    2.0860    1.0900 C   0  0
   -0.1540    3.3500    3.0840 C   0  0
    0.1050    3.0760   -3.0490 C   0  0
    1.0140   -1.2520   -0.9900 C   0  0
   -0.3690    2.3220    4.1640 C   0  0
   -1.1720    3.6190   -2.8160 C   0  0
    1.2260    3.9220   -3.1020 C   0  0
    1.7300   -1.2360    0.2210 C   0  0
   -0.0740   -2.1270   -1.1480 C   0  0
    0.2650    1.2930    4.1780 O   0  0
   -1.2870    2.6410    5.0720 O   0  0
   -1.3260    5.0060   -2.6410 C   0  0
    1.0740    5.3090   -2.9220 C   0  0
    1.3590   -2.0960    1.2680 C   0  0
   -0.4440   -2.9860   -0.0980 C   0  0
   -2.5350    5.5180   -2.4240 F   0  0
   -0.2030    5.8500   -2.6910 C   0  0
    2.1370    6.1080   -2.9710 F   0  0
    0.2710   -2.9730    1.1110 C   0  0
   -0.0760   -3.7770    2.0960 O   0  0
   -0.5020   -4.9860    1.7850 C   0  0
   -1.5510   -5.5800    2.5120 C   0  0
    0.0920   -5.6880    0.7210 C   0  0
   -2.1190   -4.9280    3.5230 F   0  0
   -2.0040   -6.8670    2.1740 C   0  0
   -0.3600   -6.9750    0.3830 C   0  0
   -1.4080   -7.5650    1.1070 C   0  0
   -1.8380   -8.7830    0.7850 F   0  0
    2.1460    3.2680    1.6970 H   0  0
   -0.6840    1.1780   -3.5490 H   0  0
    0.9940    1.4260   -4.0290 H   0  0
    2.4840   -0.1800   -2.0700 H   0  0
    1.1620   -0.8090   -3.0530 H   0  0
   -1.9550    2.0610    1.5610 H   0  0
    0.6950    3.9820    3.3380 H   0  0
   -1.0180    4.0140    3.0290 H   0  0
   -2.0350    2.9710   -2.7750 H   0  0
    2.2090    3.5080   -3.2810 H   0  0
    2.5680   -0.5660    0.3480 H   0  0
   -0.6290   -2.1450   -2.0740 H   0  0
   -1.4710    2.0230    5.7930 H   0  0
    1.9140   -2.0800    2.1950 H   0  0
   -1.2810   -3.6560   -0.2250 H   0  0
   -0.3220    6.9140   -2.5550 H   0  0
    0.8960   -5.2360    0.1600 H   0  0
   -2.8110   -7.3220    2.7320 H   0  0
    0.1030   -7.5060   -0.4380 H   0  0
  1  2  1  0
  2  3  2  0
  2  4  1  0
  3  5  1  0
  3  6  1  0
  4  7  2  0
  5  8  1  0
  5  9  1  0
  6 10  1  0
  6 11  2  0
  7 12  1  0
  8 13  1  0
  9 14  1  0
 12 15  1  0
 13 16  2  0
 13 17  1  0
 14 18  2  0
 14 19  1  0
 15 20  2  0
 15 21  1  0
 16 22  1  0
 17 23  2  0
 18 24  1  0
 19 25  2  0
 22 26  1  0
 22 27  2  0
 23 28  1  0
 24 29  2  0
 29 30  1  0
 30 31  1  0
 31 32  2  0
 31 33  1  0
 32 34  1  0
 32 35  1  0
 33 36  2  0
 35 37  2  0
 37 38  1  0
  7 11  1  0
 23 27  1  0
 25 29  1  0
 36 37  1  0
  4 39  1  0
  8 40  1  0
  8 41  1  0
  9 42  1  0
  9 43  1  0
 11 44  1  0
 12 45  1  0
 12 46  1  0
 16 47  1  0
 17 48  1  0
 18 49  1  0
 19 50  1  0
 21 51  1  0
 24 52  1  0
 25 53  1  0
 27 54  1  0
 33 55  1  0
 35 56  1  0
 36 57  1  0
M  END
> <Name>
CHEMBL2087289

> <IC50 nM>
4.5

> <Molecule_ChEMBL_ID>
CHEMBL2087289

> <Smiles>
O=C(O)Cc1cc(Br)c(N(Cc2ccc(Oc3ccc(F)cc3F)cc2)Cc2cc(F)cc(F)c2)c(Br)c1

$$$$
CHEMBL4777252
  SciTegic08162514323D

 72 75  0  0  1  0            999 V2000
   -5.4550   -9.2380   -0.1130 F   0  0
   -4.2320   -8.7210   -0.4530 C   0  0
   -3.2930   -9.7170   -0.4320 F   0  0
   -4.2990   -8.1780   -1.7110 F   0  0
   -3.8980   -7.6580    0.5610 C   0  0
   -4.6560   -7.4020    1.4670 O   0  0
   -2.7150   -6.9860    0.4390 N   0  0
   -2.3730   -5.9470    1.4220 C   0  0  2  0  0  0
   -1.4900   -4.8670    0.7910 C   0  0  2  0  0  0
   -1.7480   -6.5610    2.6740 C   0  0
   -1.1680   -3.8910    1.7700 O   0  0
   -2.1660   -4.2130   -0.3590 C   0  0
   -0.4750   -2.8380    1.3850 C   0  0
   -1.6470   -4.3610   -1.6580 C   0  0
   -3.3240   -3.4430   -0.1520 C   0  0
   -0.6460   -1.5960    2.0290 C   0  0
    0.4450   -2.9380    0.3280 C   0  0
   -2.2830   -3.7420   -2.7460 C   0  0
   -3.9630   -2.8240   -1.2420 C   0  0
    0.0610   -0.4920    1.6500 N   0  0
    1.1700   -1.7950   -0.0570 C   0  0
   -3.4430   -2.9730   -2.5390 C   0  0
    0.9570   -0.5800    0.6230 C   0  0
   -4.1170   -2.3180   -3.6910 C   0  0
    1.7210    0.6390    0.2210 C   0  0
    2.5220    0.5980   -0.6820 O   0  0
    1.4980    1.8050    0.8970 N   0  0
    2.2440    3.0180    0.5100 C   0  0  1  0  0  0
    1.5310    4.2890    1.0220 C   0  0
    3.7010    2.9470    1.0100 C   0  0
    2.3340    5.5040    0.7440 N   0  0
    4.4670    4.2170    0.6110 C   0  0
    1.7640    6.6060    0.1620 C   0  0
    3.7700    5.4940    1.1130 C   0  0
    0.5960    6.5980   -0.1460 O   0  0
    2.6230    7.8200   -0.0820 C   0  0  1  0  0  0
    3.5820    7.5430   -1.1020 O   0  0
    1.8440    9.0630   -0.5350 C   0  0
    3.8260    8.6840   -1.7340 C   0  0
    2.9380    9.8070   -1.2950 C   0  0
    4.6680    8.8260   -2.5920 O   0  0
   -2.0900   -7.1990   -0.3110 H   0  0
   -3.2890   -5.5120    1.8180 H   0  0
   -0.5640   -5.3320    0.4530 H   0  0
   -2.4100   -7.3130    3.1060 H   0  0
   -0.7890   -7.0220    2.4410 H   0  0
   -1.5740   -5.7970    3.4340 H   0  0
   -0.7560   -4.9510   -1.8240 H   0  0
   -3.7290   -3.3260    0.8420 H   0  0
   -1.3520   -1.5120    2.8440 H   0  0
    0.5960   -3.8770   -0.1840 H   0  0
   -1.8790   -3.8590   -3.7420 H   0  0
   -4.8520   -2.2360   -1.0740 H   0  0
    1.8790   -1.8560   -0.8690 H   0  0
   -5.0060   -1.7460   -3.4240 H   0  0
   -4.4140   -3.0740   -4.4160 H   0  0
   -3.4220   -1.6390   -4.1840 H   0  0
    0.8340    1.8280    1.6430 H   0  0
    2.2620    3.0450   -0.5800 H   0  0
    0.5430    4.3790    0.5660 H   0  0
    1.3770    4.2310    2.1020 H   0  0
    4.2070    2.0720    0.6020 H   0  0
    3.7210    2.8460    2.0980 H   0  0
    4.5570    4.2540   -0.4750 H   0  0
    5.4840    4.1740    0.9980 H   0  0
    4.2740    6.3750    0.7150 H   0  0
    3.8440    5.5530    2.1990 H   0  0
    3.1720    8.0530    0.8200 H   0  0
    1.4360    9.6330    0.2870 H   0  0
    1.0390    8.7970   -1.2050 H   0  0
    3.4860   10.4770   -0.6500 H   0  0
    2.5490   10.3610   -2.1370 H   0  0
  1  2  1  0
  2  3  1  0
  2  4  1  0
  2  5  1  0
  5  6  2  0
  5  7  1  0
  7  8  1  0
  8  9  1  0
  8 10  1  0
  9 11  1  0
  9 12  1  0
 11 13  1  0
 12 14  2  0
 12 15  1  0
 13 16  2  0
 13 17  1  0
 14 18  1  0
 15 19  2  0
 16 20  1  0
 17 21  2  0
 18 22  2  0
 20 23  2  0
 22 24  1  0
 23 25  1  0
 25 26  2  0
 25 27  1  0
 28 27  1  0
 28 29  1  0
 28 30  1  0
 29 31  1  0
 30 32  1  0
 31 33  1  0
 31 34  1  0
 33 35  2  0
 36 33  1  0
 36 37  1  0
 36 38  1  0
 37 39  1  0
 38 40  1  0
 39 41  2  0
 19 22  1  0
 21 23  1  0
 32 34  1  0
 39 40  1  0
  7 42  1  0
  8 43  1  0
  9 44  1  0
 10 45  1  0
 10 46  1  0
 10 47  1  0
 14 48  1  0
 15 49  1  0
 16 50  1  0
 17 51  1  0
 18 52  1  0
 19 53  1  0
 21 54  1  0
 24 55  1  0
 24 56  1  0
 24 57  1  0
 27 58  1  0
 28 59  1  0
 29 60  1  0
 29 61  1  0
 30 62  1  0
 30 63  1  0
 32 64  1  0
 32 65  1  0
 34 66  1  0
 34 67  1  0
 36 68  1  0
 38 69  1  0
 38 70  1  0
 40 71  1  0
 40 72  1  0
M  END
> <Name>
CHEMBL4777252

> <IC50 nM>
107

> <Molecule_ChEMBL_ID>
CHEMBL4777252

> <Smiles>
Cc1ccc([C@@H](Oc2ccc(C(=O)N[C@@H]3CCCN(C(=O)[C@@H]4CCC(=O)O4)C3)nc2)[C@H](C)NC(=O)C(F)(F)F)cc1

$$$$
CHEMBL134260
  SciTegic08162514323D

 41 43  0  0  1  0            999 V2000
   -4.4420    0.9360   -0.7540 S   0  0
   -3.1080    0.8500    0.2810 C   0  0
   -5.2170    1.9670    0.3590 C   0  0
   -1.9000    0.0510   -0.0410 C   0  0
   -3.1900    1.5740    1.4770 C   0  0
   -6.5220    2.5570    0.2320 C   0  0
   -4.4420    2.2310    1.5120 C   0  0
   -0.6470    0.6900   -0.0100 C   0  0
   -2.0650   -1.3090   -0.3630 C   0  0
   -2.1330    1.6560    2.5610 C   0  0
   -7.5740    3.0310    0.1310 N   0  0
    0.5180   -0.0720   -0.3070 C   0  0
   -0.9080   -2.0610   -0.6740 C   0  0
    0.3830   -1.4570   -0.6560 C   0  0
    1.8630    0.5760   -0.2600 C   0  0  2  0  0  0
    1.4690   -2.2130   -0.9750 N   0  0
    2.9860   -0.4630   -0.0860 C   0  0
    1.9770    1.6470    0.8360 C   0  0
    2.8400   -1.6460   -1.0610 C   0  0
    3.0900   -1.1860   -2.5020 C   0  0
    3.8590   -2.7340   -0.7030 C   0  0
   -4.7520    2.8590    2.3360 H   0  0
   -0.5780    1.7400    0.2360 H   0  0
   -3.0410   -1.7700   -0.3750 H   0  0
   -1.5570    0.7400    2.6970 H   0  0
   -2.6080    1.8970    3.5120 H   0  0
   -1.4340    2.4590    2.3260 H   0  0
   -1.0290   -3.1050   -0.9280 H   0  0
    2.0040    1.0700   -1.2230 H   0  0
    1.3550   -3.1890   -1.1720 H   0  0
    2.9730   -0.8380    0.9410 H   0  0
    3.9570    0.0140   -0.2150 H   0  0
    1.3530    2.5100    0.5980 H   0  0
    1.6720    1.2440    1.8010 H   0  0
    3.0060    1.9940    0.9300 H   0  0
    2.3480   -0.4570   -2.8280 H   0  0
    3.0530   -2.0310   -3.1890 H   0  0
    4.0740   -0.7250   -2.5940 H   0  0
    3.7090   -3.1150    0.3070 H   0  0
    4.8750   -2.3460   -0.7680 H   0  0
    3.7810   -3.5760   -1.3930 H   0  0
  1  2  1  0
  1  3  1  0
  2  4  1  0
  2  5  2  0
  3  6  1  0
  3  7  2  0
  4  8  2  0
  4  9  1  0
  5 10  1  0
  6 11  3  0
  8 12  1  0
  9 13  2  0
 12 14  2  0
 12 15  1  0
 14 16  1  0
 15 17  1  0
 15 18  1  0
 16 19  1  0
 19 20  1  0
 19 21  1  0
  5  7  1  0
 13 14  1  0
 17 19  1  0
  7 22  1  0
  8 23  1  0
  9 24  1  0
 10 25  1  0
 10 26  1  0
 10 27  1  0
 13 28  1  0
 15 29  1  0
 16 30  1  0
 17 31  1  0
 17 32  1  0
 18 33  1  0
 18 34  1  0
 18 35  1  0
 20 36  1  0
 20 37  1  0
 20 38  1  0
 21 39  1  0
 21 40  1  0
 21 41  1  0
M  END
> <Name>
CHEMBL134260

> <IC50 nM>
1000

> <Molecule_ChEMBL_ID>
CHEMBL134260

> <Smiles>
Cc1cc(C#N)sc1-c1ccc2c(c1)C(C)CC(C)(C)N2

$$$$
CHEMBL2087286
  SciTegic08162514323D

 69 72  0  0  0  0            999 V2000
   -1.0630    1.3500    2.9220 S   0  0
   -2.4820    1.1270    2.7190 O   0  0
   -0.2290    0.3420    2.2870 O   0  0
   -0.6910    2.7790    2.2560 N   0  0
   -0.7230    1.3550    4.6800 C   0  0
    0.3590    2.8750    1.3790 C   0  0
    0.2420    2.4240    0.0410 C   0  0
    1.5700    3.4340    1.8280 C   0  0
    1.3480    2.5410   -0.8340 C   0  0
   -1.0410    1.8300   -0.4430 C   0  0
    2.6620    3.5470    0.9550 C   0  0
    1.2730    2.1170   -2.1370 N   0  0
    2.5530    3.1040   -0.3710 C   0  0
    0.2730    2.6740   -3.0590 C   0  0
    2.2030    1.0900   -2.6290 C   0  0
    0.1110    4.1390   -2.8710 C   0  0
    2.0780   -0.1760   -1.8610 C   0  0
   -1.1660    4.6800   -2.6390 C   0  0
    1.2320    4.9840   -2.9240 C   0  0
    3.0860   -0.5530   -0.9570 C   0  0
    0.9490   -0.9980   -2.0350 C   0  0
   -1.3200    6.0660   -2.4610 C   0  0
    1.0800    6.3690   -2.7440 C   0  0
    2.9670   -1.7500   -0.2310 C   0  0
    0.8320   -2.1930   -1.3070 C   0  0
   -2.5290    6.5800   -2.2440 F   0  0
   -0.1970    6.9120   -2.5140 C   0  0
    2.1430    7.1700   -2.7910 F   0  0
    1.8400   -2.5740   -0.4020 C   0  0
    1.7290   -3.6950    0.2790 O   0  0
    0.5270   -4.0530    0.6910 C   0  0
    0.1560   -5.4080    0.6950 C   0  0
   -0.3850   -3.0780    1.1330 C   0  0
   -1.1230   -5.7950    1.1350 C   0  0
   -1.6640   -3.4590    1.5720 C   0  0
   -1.4630   -7.0680    1.1330 O   0  0
   -2.0330   -4.8150    1.5740 C   0  0
   -2.7640   -7.4120    1.5860 C   0  0
   -3.2480   -5.1680    1.9920 F   0  0
   -2.9450   -8.9040    1.5020 C   0  0
   -2.0590   -9.6170    1.0960 O   0  0
   -4.1310   -9.3540    1.9020 O   0  0
   -1.2290    3.5900    2.4840 H   0  0
   -0.9530    0.4160    5.1840 H   0  0
   -1.3050    2.1430    5.1580 H   0  0
    0.3320    1.5720    4.8460 H   0  0
    1.6780    3.7830    2.8460 H   0  0
   -1.5880    1.4080    0.4000 H   0  0
   -1.6130    2.5860   -0.9810 H   0  0
   -0.8260    1.0200   -1.1410 H   0  0
    3.5900    3.9770    1.3050 H   0  0
    3.4080    3.1990   -1.0250 H   0  0
   -0.6820    2.1780   -2.8930 H   0  0
    0.5800    2.4710   -4.0860 H   0  0
    3.2250    1.4630   -2.5510 H   0  0
    1.9980    0.8960   -3.6840 H   0  0
   -2.0290    4.0310   -2.5960 H   0  0
    2.2150    4.5680   -3.1020 H   0  0
    3.9550    0.0720   -0.8180 H   0  0
    0.1700   -0.7130   -2.7290 H   0  0
    3.7440   -2.0370    0.4630 H   0  0
   -0.0370   -2.8200   -1.4450 H   0  0
   -0.3160    7.9770   -2.3750 H   0  0
    0.8550   -6.1580    0.3570 H   0  0
   -0.1040   -2.0350    1.1330 H   0  0
   -2.3610   -2.7050    1.9100 H   0  0
   -3.4900   -6.9140    0.9450 H   0  0
   -2.8610   -7.0840    2.6210 H   0  0
   -4.3130  -10.3010    1.8730 H   0  0
  1  2  2  0
  1  3  2  0
  1  4  1  0
  1  5  1  0
  4  6  1  0
  6  7  2  0
  6  8  1  0
  7  9  1  0
  7 10  1  0
  8 11  2  0
  9 12  1  0
  9 13  2  0
 12 14  1  0
 12 15  1  0
 14 16  1  0
 15 17  1  0
 16 18  2  0
 16 19  1  0
 17 20  2  0
 17 21  1  0
 18 22  1  0
 19 23  2  0
 20 24  1  0
 21 25  2  0
 22 26  1  0
 22 27  2  0
 23 28  1  0
 24 29  2  0
 29 30  1  0
 30 31  1  0
 31 32  2  0
 31 33  1  0
 32 34  1  0
 33 35  2  0
 34 36  1  0
 34 37  2  0
 36 38  1  0
 37 39  1  0
 38 40  1  0
 40 41  2  0
 40 42  1  0
 11 13  1  0
 23 27  1  0
 25 29  1  0
 35 37  1  0
  4 43  1  0
  5 44  1  0
  5 45  1  0
  5 46  1  0
  8 47  1  0
 10 48  1  0
 10 49  1  0
 10 50  1  0
 11 51  1  0
 13 52  1  0
 14 53  1  0
 14 54  1  0
 15 55  1  0
 15 56  1  0
 18 57  1  0
 19 58  1  0
 20 59  1  0
 21 60  1  0
 24 61  1  0
 25 62  1  0
 27 63  1  0
 32 64  1  0
 33 65  1  0
 35 66  1  0
 38 67  1  0
 38 68  1  0
 42 69  1  0
M  END
> <Name>
CHEMBL2087286

> <IC50 nM>
4.6

> <Molecule_ChEMBL_ID>
CHEMBL2087286

> <Smiles>
Cc1c(NS(C)(=O)=O)cccc1N(Cc1ccc(Oc2ccc(F)c(OCC(=O)O)c2)cc1)Cc1cc(F)cc(F)c1

$$$$
CHEMBL4755015
  SciTegic08162514323D

 61 63  0  0  1  0            999 V2000
   -8.4510   -2.9120   -1.0430 F   0  0
   -7.7520   -1.7970   -0.6600 C   0  0
   -8.4980   -0.6780   -0.9200 F   0  0
   -7.4840   -1.8650    0.6840 F   0  0
   -6.4710   -1.7750   -1.4510 C   0  0
   -6.2190   -2.6430   -2.2520 O   0  0
   -5.5920   -0.7500   -1.2460 N   0  0
   -4.3360   -0.7110   -2.0100 C   0  0  2  0  0  0
   -3.1780   -0.2320   -1.1350 C   0  0  2  0  0  0
   -4.4960    0.1170   -3.2830 C   0  0
   -1.9860   -0.1970   -1.9060 O   0  0
   -2.9780   -1.1190    0.0430 C   0  0
   -0.8810    0.2130   -1.3180 C   0  0
   -3.2950   -0.6580    1.3320 C   0  0
   -2.4730   -2.4200   -0.1330 C   0  0
    0.3790   -0.1030   -1.8650 C   0  0
   -0.9410    0.9730   -0.1370 C   0  0
   -3.1050   -1.4960    2.4450 C   0  0
   -2.2830   -3.2580    0.9800 C   0  0
    1.5370    0.3110   -1.2750 N   0  0
    0.2560    1.3950    0.4650 C   0  0
   -2.6000   -2.7970    2.2700 C   0  0
    1.4880    1.0490   -0.1270 C   0  0
   -2.4000   -3.6840    3.4470 C   0  0
    2.7640    1.4920    0.5060 C   0  0
    2.7600    2.1470    1.5210 O   0  0
    3.9450    1.1470   -0.0860 N   0  0
    5.2170    1.5760    0.5270 C   0  0
    6.3830    0.6880    0.0570 C   0  0
    5.4940    3.0630    0.2280 C   0  0
    7.7230    1.1490    0.6480 C   0  0
    6.8360    3.5200    0.8200 C   0  0
    7.9920    2.6290    0.3480 C   0  0
   -5.8010   -0.0310   -0.5820 H   0  0
   -4.1330   -1.7030   -2.4120 H   0  0
   -3.3940    0.7790   -0.7950 H   0  0
   -5.3280   -0.2500   -3.8830 H   0  0
   -4.6680    1.1660   -3.0410 H   0  0
   -3.5960    0.0630   -3.8950 H   0  0
   -3.6840    0.3400    1.4750 H   0  0
   -2.2270   -2.7810   -1.1210 H   0  0
    0.4340   -0.6850   -2.7740 H   0  0
   -1.8940    1.2290    0.3030 H   0  0
   -3.3520   -1.1370    3.4340 H   0  0
   -1.8940   -4.2560    0.8380 H   0  0
    0.2250    1.9790    1.3730 H   0  0
   -2.0060   -4.6700    3.2050 H   0  0
   -3.3520   -3.8220    3.9630 H   0  0
   -1.7110   -3.2110    4.1470 H   0  0
    3.9420    0.6040   -0.9260 H   0  0
    5.1080    1.4570    1.6050 H   0  0
    6.2050   -0.3530    0.3340 H   0  0
    6.4530    0.7070   -1.0330 H   0  0
    4.6920    3.6880    0.6270 H   0  0
    5.5080    3.2330   -0.8500 H   0  0
    8.5330    0.5370    0.2520 H   0  0
    7.7170    0.9940    1.7270 H   0  0
    6.7790    3.4920    1.9100 H   0  0
    7.0300    4.5570    0.5470 H   0  0
    8.9220    2.9430    0.8240 H   0  0
    8.1350    2.7620   -0.7250 H   0  0
  1  2  1  0
  2  3  1  0
  2  4  1  0
  2  5  1  0
  5  6  2  0
  5  7  1  0
  7  8  1  0
  8  9  1  0
  8 10  1  0
  9 11  1  0
  9 12  1  0
 11 13  1  0
 12 14  2  0
 12 15  1  0
 13 16  2  0
 13 17  1  0
 14 18  1  0
 15 19  2  0
 16 20  1  0
 17 21  2  0
 18 22  2  0
 20 23  2  0
 22 24  1  0
 23 25  1  0
 25 26  2  0
 25 27  1  0
 27 28  1  0
 28 29  1  0
 28 30  1  0
 29 31  1  0
 30 32  1  0
 31 33  1  0
 19 22  1  0
 21 23  1  0
 32 33  1  0
  7 34  1  0
  8 35  1  0
  9 36  1  0
 10 37  1  0
 10 38  1  0
 10 39  1  0
 14 40  1  0
 15 41  1  0
 16 42  1  0
 17 43  1  0
 18 44  1  0
 19 45  1  0
 21 46  1  0
 24 47  1  0
 24 48  1  0
 24 49  1  0
 27 50  1  0
 28 51  1  0
 29 52  1  0
 29 53  1  0
 30 54  1  0
 30 55  1  0
 31 56  1  0
 31 57  1  0
 32 58  1  0
 32 59  1  0
 33 60  1  0
 33 61  1  0
M  END
> <Name>
CHEMBL4755015

> <IC50 nM>
9

> <Molecule_ChEMBL_ID>
CHEMBL4755015

> <Smiles>
Cc1ccc([C@@H](Oc2ccc(C(=O)NC3CCCCC3)nc2)[C@H](C)NC(=O)C(F)(F)F)cc1

$$$$
CHEMBL5285925
  SciTegic08162514323D

 59 62  0  0  0  0            999 V2000
    3.9840   -5.9750    3.9340 Cl  0  0
    3.6150   -5.0660    2.5200 C   0  0
    4.5080   -5.0180    1.4260 C   0  0
    2.4000   -4.3610    2.4590 C   0  0
    4.1740   -4.2680    0.2830 C   0  0
    5.8070   -5.7480    1.4510 C   0  0
    2.0740   -3.6130    1.3140 C   0  0
    2.9590   -3.5640    0.2230 C   0  0
    0.5800   -2.7520    1.2540 S   0  0
    2.6520   -2.8650   -0.8520 O   0  0
   -0.1680   -3.0470    2.4630 O   0  0
   -0.1210   -3.1350    0.0410 O   0  0
    0.8050   -1.1480    1.2010 N   0  0
    3.5820   -2.8520   -1.9260 C   0  0
   -0.2480   -0.3260    1.0720 C   0  0
   -1.5640   -0.8460    1.0590 C   0  0
   -0.0570    1.0680    0.9450 C   0  0
   -2.6840    0.0140    0.9220 C   0  0
   -1.1640    1.9340    0.8090 C   0  0
   -2.4980    1.4280    0.7930 C   0  0
   -4.0430   -0.5880    0.9160 C   0  0
   -3.5760    2.2680    0.6600 N   0  0
   -5.0550    0.2990    0.1840 C   0  0
   -3.4300    3.6230    0.4980 C   0  0
   -4.9730    1.7420    0.6930 C   0  0
   -4.1390    4.3910    1.1070 O   0  0
   -2.3830    4.1250   -0.4410 C   0  0
   -1.7640    5.3650   -0.2070 C   0  0
   -2.0180    3.3600   -1.5610 C   0  0
   -0.7790    5.8380   -1.0920 C   0  0
   -1.0310    3.8320   -2.4450 C   0  0
   -0.4100    5.0720   -2.2130 C   0  0
    0.5140    5.5160   -3.0430 O   0  0
    0.8970    4.6780   -4.1230 C   0  0
    1.7070   -4.3870    3.2870 H   0  0
    4.8520   -4.2300   -0.5570 H   0  0
    6.3930   -5.5900    2.3570 H   0  0
    6.4140   -5.4360    0.6020 H   0  0
    5.6230   -6.8180    1.3550 H   0  0
    1.7290   -0.7690    1.2660 H   0  0
    3.3090   -2.2660   -2.8030 H   0  0
    3.7440   -3.8790   -2.2480 H   0  0
    4.5310   -2.4670   -1.5510 H   0  0
   -1.7290   -1.9100    1.1560 H   0  0
    0.9380    1.4920    0.9510 H   0  0
   -0.9590    2.9900    0.7170 H   0  0
   -4.0270   -1.5760    0.4530 H   0  0
   -4.3590   -0.7280    1.9510 H   0  0
   -4.8570    0.2770   -0.8910 H   0  0
   -6.0650   -0.0900    0.3180 H   0  0
   -5.6290    2.3770    0.0960 H   0  0
   -5.3360    1.7930    1.7210 H   0  0
   -2.0390    5.9630    0.6500 H   0  0
   -2.4880    2.4040   -1.7500 H   0  0
   -0.3050    6.7910   -0.9080 H   0  0
   -0.7540    3.2400   -3.3050 H   0  0
    1.6210    5.2170   -4.7330 H   0  0
    1.2230    3.7230   -3.7170 H   0  0
    0.0160    4.4940   -4.7400 H   0  0
  1  2  1  0
  2  3  2  0
  2  4  1  0
  3  5  1  0
  3  6  1  0
  4  7  2  0
  5  8  2  0
  7  9  1  0
  8 10  1  0
  9 11  2  0
  9 12  2  0
  9 13  1  0
 10 14  1  0
 13 15  1  0
 15 16  2  0
 15 17  1  0
 16 18  1  0
 17 19  2  0
 18 20  2  0
 18 21  1  0
 20 22  1  0
 21 23  1  0
 22 24  1  0
 22 25  1  0
 24 26  2  0
 24 27  1  0
 27 28  2  0
 27 29  1  0
 28 30  1  0
 29 31  2  0
 30 32  2  0
 32 33  1  0
 33 34  1  0
  7  8  1  0
 19 20  1  0
 23 25  1  0
 31 32  1  0
  4 35  1  0
  5 36  1  0
  6 37  1  0
  6 38  1  0
  6 39  1  0
 13 40  1  0
 14 41  1  0
 14 42  1  0
 14 43  1  0
 16 44  1  0
 17 45  1  0
 19 46  1  0
 21 47  1  0
 21 48  1  0
 23 49  1  0
 23 50  1  0
 25 51  1  0
 25 52  1  0
 28 53  1  0
 29 54  1  0
 30 55  1  0
 31 56  1  0
 34 57  1  0
 34 58  1  0
 34 59  1  0
M  END
> <Name>
CHEMBL5285925

> <IC50 nM>
67

> <Molecule_ChEMBL_ID>
CHEMBL5285925

> <Smiles>
COc1ccc(C(=O)N2CCCc3cc(NS(=O)(=O)c4cc(Cl)c(C)cc4OC)ccc32)cc1

$$$$
CHEMBL5284653
  SciTegic08162514323D

 75 79  0  0  0  0            999 V2000
   -4.2310    2.7770    1.3530 S   0  0
   -3.0410    1.5900    1.0880 C   0  0
   -5.4670    1.6330    1.4100 C   0  0
   -3.5840    0.3320    1.0450 N   0  0
   -1.6000    1.8810    0.9260 C   0  0
   -4.9450    0.3480    1.2250 C   0  0
   -0.8560    1.2440   -0.0860 C   0  0
   -0.9730    2.7970    1.7890 C   0  0
   -5.7380   -0.9430    1.2090 C   0  0
   -1.4320    0.3830   -0.9000 O   0  0
    0.5140    1.5290   -0.2290 C   0  0
    0.3940    3.0800    1.6450 C   0  0
   -5.7050   -1.5980   -0.1720 C   0  0
   -0.5980   -0.4080   -1.7360 C   0  0
    1.1430    2.4470    0.6350 C   0  0
   -6.4010   -2.9100   -0.1720 C   0  0
   -1.4430   -1.4650   -2.4470 C   0  0
    2.4670    2.7210    0.4940 N   0  0
   -7.8070   -2.9630   -0.1720 C   0  0
   -5.6540   -4.1040   -0.1720 C   0  0
   -0.6490   -2.3030   -3.3380 N   0  0
    3.0980    2.8160   -0.6880 N   0  0
    3.3340    2.9340    1.5250 C   0  0
   -8.4630   -4.2050   -0.1720 C   0  0
   -6.3130   -5.3440   -0.1720 C   0  0
    0.2870   -3.2540   -2.9400 C   0  0
   -0.7400   -2.2440   -4.7910 C   0  0
    4.3830    3.0940   -0.4410 N   0  3
    4.5980    3.1820    0.9390 C   0  0
   -7.7170   -5.3970   -0.1720 C   0  0
    0.5660   -3.5120   -1.7910 O   0  0
    0.8610   -3.8670   -4.0530 N   0  0
    0.2750   -3.2950   -5.2680 C   0  0
    5.3650    3.2660   -1.5220 C   0  0
    5.9280    3.4800    1.5980 C   0  0
    6.8110    2.2320    1.6540 C   0  0
    7.6110    2.1350    2.9550 C   0  0
    6.7500    1.7190    4.1460 C   0  0
    7.5660    1.5840    5.3420 N   0  0
   -6.5120    1.8690    1.5680 H   0  0
   -1.5430    3.2870    2.5660 H   0  0
   -6.7640   -0.7420    1.5160 H   0  0
   -5.3420   -1.6190    1.9670 H   0  0
    1.0740    1.0330   -1.0100 H   0  0
    0.8570    3.7890    2.3180 H   0  0
   -4.6780   -1.7310   -0.5100 H   0  0
   -6.1580   -0.9450   -0.9180 H   0  0
    0.1620   -0.8770   -1.1110 H   0  0
   -0.1170    0.2520   -2.4590 H   0  0
   -2.2500   -0.9960   -3.0120 H   0  0
   -1.9630   -2.0940   -1.7230 H   0  0
   -8.3850   -2.0510   -0.1720 H   0  0
   -4.5740   -4.0700   -0.1720 H   0  0
    3.0800    2.9140    2.5760 H   0  0
   -9.5430   -4.2440   -0.1720 H   0  0
   -5.7380   -6.2600   -0.1720 H   0  0
   -1.7460   -2.4810   -5.1110 H   0  0
   -0.4880   -1.2520   -5.1410 H   0  0
   -8.2230   -6.3500   -0.1720 H   0  0
    1.5600   -4.5820   -4.0260 H   0  0
   -0.2030   -4.0720   -5.8480 H   0  0
    1.0490   -2.8500   -5.8770 H   0  0
    4.8950    3.0470   -2.4810 H   0  0
    5.7830    4.2710   -1.4750 H   0  0
    6.1860    2.5590   -1.3830 H   0  0
    5.7580    3.8790    2.5980 H   0  0
    6.4300    4.2810    1.0550 H   0  0
    7.4730    2.1890    0.7910 H   0  0
    6.2150    1.3320    1.5000 H   0  0
    8.1270    3.0720    3.1600 H   0  0
    8.4570    1.4590    2.8360 H   0  0
    6.2440    0.7750    3.9450 H   0  0
    5.9610    2.4490    4.3260 H   0  0
    8.2930    0.8790    5.1580 H   0  0
    8.0310    2.4880    5.5180 H   0  0
  1  2  1  0
  1  3  1  0
  2  4  2  0
  2  5  1  0
  3  6  2  0
  5  7  2  0
  5  8  1  0
  6  9  1  0
  7 10  1  0
  7 11  1  0
  8 12  2  0
  9 13  1  0
 10 14  1  0
 11 15  2  0
 13 16  1  0
 14 17  1  0
 15 18  1  0
 16 19  2  0
 16 20  1  0
 17 21  1  0
 18 22  1  0
 18 23  1  0
 19 24  1  0
 20 25  2  0
 21 26  1  0
 21 27  1  0
 22 28  2  0
 23 29  2  0
 24 30  2  0
 26 31  2  0
 26 32  1  0
 27 33  1  0
 28 34  1  0
 29 35  1  0
 35 36  1  0
 36 37  1  0
 37 38  1  0
 38 39  1  0
  4  6  1  0
 12 15  1  0
 25 30  1  0
 28 29  1  0
 32 33  1  0
  3 40  1  0
  8 41  1  0
  9 42  1  0
  9 43  1  0
 11 44  1  0
 12 45  1  0
 13 46  1  0
 13 47  1  0
 14 48  1  0
 14 49  1  0
 17 50  1  0
 17 51  1  0
 19 52  1  0
 20 53  1  0
 23 54  1  0
 24 55  1  0
 25 56  1  0
 27 57  1  0
 27 58  1  0
 30 59  1  0
 32 60  1  0
 33 61  1  0
 33 62  1  0
 34 63  1  0
 34 64  1  0
 34 65  1  0
 35 66  1  0
 35 67  1  0
 36 68  1  0
 36 69  1  0
 37 70  1  0
 37 71  1  0
 38 72  1  0
 38 73  1  0
 39 74  1  0
 39 75  1  0
M  CHG  1  28   1
M  END
> <Name>
CHEMBL5284653

> <IC50 nM>
75000

> <Molecule_ChEMBL_ID>
CHEMBL5284653

> <Smiles>
C[n+]1nn(-c2ccc(-c3nc(CCc4ccccc4)cs3)c(OCCN3CCNC3=O)c2)cc1CCCCN.O=C(O)C(F)(F)F.O=S(=O)([O-])C(F)(F)F

$$$$
CHEMBL3582125
  SciTegic08162514323D

 53 57  0  0  0  0            999 V2000
    3.8600   -2.4220   -0.3100 O   0  0
    2.9080   -1.9570    0.2770 C   0  0
    2.1080   -2.8150    1.2460 C   0  0
    2.4940   -0.5100    0.0630 C   0  0
    0.6560   -2.4880    1.2360 N   0  0
    2.2720   -4.2950    0.8830 C   0  0
    2.6510   -2.5820    2.6580 C   0  0
    1.0270   -0.2950    0.2310 C   0  0
    3.2480    0.3440    1.0860 C   0  0
    2.9220   -0.0920   -1.3530 C   0  0
    0.1900   -1.2950    0.7870 C   0  0
    0.4280    0.9260   -0.1600 C   0  0
   -1.2230   -1.1310    0.9300 C   0  0
   -0.9650    1.1050   -0.0120 C   0  0
   -1.8010    0.0880    0.5240 C   0  0
   -2.2770   -2.0700    1.4710 C   0  0
   -1.5590    2.3710   -0.4220 C   0  0
   -3.2930    0.0940    0.7460 C   0  0
   -3.6190   -1.3630    1.1520 C   0  0
   -1.5920    2.7930   -1.7890 C   0  0
   -2.1190    3.2030    0.5800 C   0  0
   -2.1970    4.0590   -2.1110 C   0  0
   -1.0490    2.0020   -2.8440 C   0  0
   -2.6990    4.4370    0.2050 C   0  0
   -2.7320    4.8480   -1.1090 N   0  0
   -2.2440    4.4920   -3.4220 N   0  0
   -1.1110    2.4750   -4.1760 C   0  0
   -1.7170    3.7270   -4.4370 C   0  0
    0.0450   -3.1970    1.5940 H   0  0
    1.9140   -4.5100   -0.1250 H   0  0
    1.7110   -4.9260    1.5740 H   0  0
    3.3180   -4.5920    0.9360 H   0  0
    2.4080   -1.5760    3.0040 H   0  0
    2.2340   -3.3090    3.3560 H   0  0
    3.7360   -2.6860    2.6760 H   0  0
    2.8910    0.1740    2.1020 H   0  0
    3.1310    1.4060    0.8650 H   0  0
    4.3150    0.1170    1.0670 H   0  0
    2.3590   -0.6230   -2.1210 H   0  0
    3.9810   -0.2990   -1.5140 H   0  0
    2.7660    0.9760   -1.5060 H   0  0
    1.0410    1.7150   -0.5700 H   0  0
   -2.1430   -2.1920    2.5350 H   0  0
   -2.2210   -3.0410    1.0020 H   0  0
   -3.8220    0.3910   -0.1480 H   0  0
   -3.5370    0.7870    1.5390 H   0  0
   -4.3010   -1.4040    1.9880 H   0  0
   -4.1040   -1.8670    0.3260 H   0  0
   -2.1090    2.9160    1.6210 H   0  0
   -0.5840    1.0450   -2.6600 H   0  0
   -3.1270    5.0740    0.9670 H   0  0
   -0.7050    1.8870   -4.9840 H   0  0
   -1.7660    4.0900   -5.4550 H   0  0
  1  2  2  0
  2  3  1  0
  2  4  1  0
  3  5  1  0
  3  6  1  0
  3  7  1  0
  4  8  1  0
  4  9  1  0
  4 10  1  0
  5 11  1  0
  8 12  2  0
 11 13  2  0
 12 14  1  0
 13 15  1  0
 13 16  1  0
 14 17  1  0
 15 18  1  0
 16 19  1  0
 17 20  2  0
 17 21  1  0
 20 22  1  0
 20 23  1  0
 21 24  2  0
 22 25  2  0
 22 26  1  0
 23 27  2  0
 26 28  2  0
  8 11  1  0
 14 15  2  0
 18 19  1  0
 24 25  1  0
 27 28  1  0
  5 29  1  0
  6 30  1  0
  6 31  1  0
  6 32  1  0
  7 33  1  0
  7 34  1  0
  7 35  1  0
  9 36  1  0
  9 37  1  0
  9 38  1  0
 10 39  1  0
 10 40  1  0
 10 41  1  0
 12 42  1  0
 16 43  1  0
 16 44  1  0
 18 45  1  0
 18 46  1  0
 19 47  1  0
 19 48  1  0
 21 49  1  0
 23 50  1  0
 24 51  1  0
 27 52  1  0
 28 53  1  0
M  END
> <Name>
CHEMBL3582125

> <IC50 nM>
53

> <Molecule_ChEMBL_ID>
CHEMBL3582125

> <Smiles>
CC1(C)Nc2c(cc(-c3ccnc4ncccc34)c3c2CCC3)C(C)(C)C1=O

$$$$
CHEMBL5276268
  SciTegic08162514323D

 48 51  0  0  0  0            999 V2000
    1.2210   -2.2420   -0.0980 S   0  0
    0.4690   -2.6210    1.0860 O   0  0
    0.6110   -2.7010   -1.3340 O   0  0
    1.2640   -0.6230   -0.1480 N   0  0
    2.7990   -2.9300    0.0180 C   0  0
    0.1270    0.0740   -0.2850 C   0  0
    3.6720   -2.8650   -1.0800 C   0  0
    3.2050   -3.5530    1.2090 C   0  0
   -1.1210   -0.5900   -0.3360 C   0  0
    0.1620    1.4840   -0.3830 C   0  0
    4.9590   -3.4240   -0.9860 C   0  0
    4.4920   -4.1110    1.3050 C   0  0
   -2.3300    0.1390   -0.4800 C   0  0
   -1.0350    2.2210   -0.5270 C   0  0
    5.3690   -4.0490    0.2050 C   0  0
   -2.3030    1.5680   -0.5780 C   0  0
   -3.6110   -0.6110   -0.5310 C   0  0
    6.7290   -4.6410    0.3050 C   0  0
   -3.4670    2.2810   -0.7170 N   0  0
   -4.7930    0.2500   -0.0700 C   0  0
    6.6780   -5.7790    1.0680 F   0  0
    7.5780   -3.7380    0.8890 F   0  0
    7.1840   -4.9530   -0.9490 F   0  0
   -3.4770    3.6540   -0.7930 C   0  0
   -4.7910    1.6000   -0.7970 C   0  0
   -4.1580    4.2150   -1.6190 O   0  0
   -2.6580    4.4320    0.1270 C   0  0
   -2.3050    5.6940   -0.2440 O   0  0
   -2.1620    4.0630    1.3790 C   0  0
   -1.5610    6.1370    0.8130 C   0  0
   -1.4470    5.1740    1.8240 C   0  0
    2.1390   -0.1440   -0.0760 H   0  0
    3.3570   -2.3850   -1.9960 H   0  0
    2.5330   -3.6020    2.0530 H   0  0
   -1.1620   -1.6680   -0.2620 H   0  0
    1.1010    2.0180   -0.3490 H   0  0
    5.6270   -3.3730   -1.8320 H   0  0
    4.8010   -4.5900    2.2230 H   0  0
   -0.9490    3.2970   -0.5980 H   0  0
   -3.7760   -0.9430   -1.5570 H   0  0
   -3.5590   -1.5100    0.0860 H   0  0
   -4.7330    0.4120    1.0060 H   0  0
   -5.7330   -0.2730   -0.2520 H   0  0
   -5.0430    1.4550   -1.8500 H   0  0
   -5.5700    2.2360   -0.3750 H   0  0
   -2.3030    3.1190    1.8950 H   0  0
   -1.1130    7.1210    0.8500 H   0  0
   -0.9140    5.2740    2.7600 H   0  0
  1  2  2  0
  1  3  2  0
  1  4  1  0
  1  5  1  0
  4  6  1  0
  5  7  2  0
  5  8  1  0
  6  9  2  0
  6 10  1  0
  7 11  1  0
  8 12  2  0
  9 13  1  0
 10 14  2  0
 11 15  2  0
 13 16  2  0
 13 17  1  0
 15 18  1  0
 16 19  1  0
 17 20  1  0
 18 21  1  0
 18 22  1  0
 18 23  1  0
 19 24  1  0
 19 25  1  0
 24 26  2  0
 24 27  1  0
 27 28  1  0
 27 29  2  0
 28 30  1  0
 29 31  1  0
 12 15  1  0
 14 16  1  0
 20 25  1  0
 30 31  2  0
  4 32  1  0
  7 33  1  0
  8 34  1  0
  9 35  1  0
 10 36  1  0
 11 37  1  0
 12 38  1  0
 14 39  1  0
 17 40  1  0
 17 41  1  0
 20 42  1  0
 20 43  1  0
 25 44  1  0
 25 45  1  0
 29 46  1  0
 30 47  1  0
 31 48  1  0
M  END
> <Name>
CHEMBL5276268

> <IC50 nM>
2620

> <Molecule_ChEMBL_ID>
CHEMBL5276268

> <Smiles>
O=C(c1ccco1)N1CCCc2cc(NS(=O)(=O)c3ccc(C(F)(F)F)cc3)ccc21

$$$$
CHEMBL5178658
  SciTegic08162514323D

 29 30  0  0  0  0            999 V2000
    0.3140   -0.4450   -1.0430 S   0  0
   -1.0000    0.6020   -0.8710 C   0  0
    0.9140   -0.5760    0.5940 C   0  0
   -1.3480    1.1270    0.3890 C   0  0
   -1.7770    0.9770   -1.9840 C   0  0
    2.1110   -1.4920    0.6190 C   0  0
   -2.4390    1.9980    0.5370 C   0  0
   -2.8710    1.8480   -1.8480 C   0  0
    3.3770   -0.9430    0.5490 N   0  0
    1.9140   -2.8320    0.7110 C   0  0
   -3.2050    2.3590   -0.5840 C   0  0
    4.4690   -1.7850    0.5720 C   0  0
    2.9590   -3.7340    0.7380 N   0  0
   -4.3610    3.2810   -0.4320 C   0  0
    5.5900   -1.3340    0.5120 O   0  0
    4.2500   -3.2520    0.6700 C   0  0
   -4.1560    4.4000   -1.1990 F   0  0
   -4.4860    3.6450    0.8830 F   0  0
   -5.5060    2.6480   -0.8440 F   0  0
    5.1880   -4.0160    0.6910 O   0  0
    0.1310   -0.9730    1.2380 H   0  0
    1.1970    0.4120    0.9570 H   0  0
   -0.7660    0.8530    1.2560 H   0  0
   -1.5310    0.5860   -2.9610 H   0  0
   -2.6860    2.3870    1.5140 H   0  0
   -3.4530    2.1170   -2.7170 H   0  0
    3.5000    0.0470    0.4820 H   0  0
    0.8950   -3.1880    0.7620 H   0  0
    2.7770   -4.7150    0.8070 H   0  0
  1  2  1  0
  1  3  1  0
  2  4  2  0
  2  5  1  0
  3  6  1  0
  4  7  1  0
  5  8  2  0
  6  9  1  0
  6 10  2  0
  7 11  2  0
  9 12  1  0
 10 13  1  0
 11 14  1  0
 12 15  2  0
 12 16  1  0
 14 17  1  0
 14 18  1  0
 14 19  1  0
 16 20  2  0
  8 11  1  0
 13 16  1  0
  3 21  1  0
  3 22  1  0
  4 23  1  0
  5 24  1  0
  7 25  1  0
  8 26  1  0
  9 27  1  0
 10 28  1  0
 13 29  1  0
M  END
> <Name>
CHEMBL5178658

> <IC50 nM>
10000

> <Molecule_ChEMBL_ID>
CHEMBL5178658

> <Smiles>
O=c1[nH]cc(CSc2ccc(C(F)(F)F)cc2)[nH]c1=O

$$$$
CHEMBL4161175
  SciTegic08162514323D

 72 76  0  0  1  0            999 V2000
   -6.7520   -1.7460    0.4220 O   0  0
   -5.5570   -1.5940    0.3630 C   0  0
   -4.7190   -1.7050    1.5670 C   0  0
   -4.8630   -1.2850   -0.9370 C   0  0
   -3.4450   -1.2640    1.6060 C   0  0
   -3.6890   -0.3070   -0.7730 C   0  0
   -2.8130   -0.5600    0.4510 C   0  0
   -2.6410   -1.4860    2.8670 C   0  0
   -1.5160   -0.1440    0.5040 C   0  0
   -1.1620   -1.6540    2.5370 C   0  0
   -0.8670    0.6760   -0.6090 C   0  0  1  0  0  0
   -0.6460   -0.4570    1.7230 C   0  0  1  0  0  0
   -1.1390    2.1250   -0.4120 C   0  0
    0.6410    0.3930   -0.8120 C   0  0
    0.8140   -0.7560    1.3420 C   0  0  1  0  0  0
   -0.6700    3.0650   -1.3480 C   0  0
   -1.8670    2.5590    0.7090 C   0  0
    1.4400    0.3630    0.5020 C   0  0  1  0  0  0
    1.8180   -0.9120    2.4880 C   0  0
   -0.9280    4.4320   -1.1620 C   0  0
   -2.1230    3.9300    0.8950 C   0  0
    2.9240   -0.0940    0.4470 C   0  0  2  0  0  0
    1.3460    1.7050    1.2460 C   0  0
    3.1800   -0.4920    1.9140 C   0  0
   -1.6540    4.8690   -0.0410 C   0  0
    3.7830    0.9670    0.0610 O   0  0
    3.1600   -1.2260   -0.4630 C   0  0
   -1.8950    6.1530    0.1350 O   0  0
    3.3590   -2.1440   -1.1950 C   0  0
   -1.3500    7.0670   -0.8070 C   0  0
    3.6020   -3.2730   -2.0880 C   0  0
    2.8890   -4.5080   -1.5330 C   0  0
    3.0570   -2.9320   -3.4770 C   0  0
    5.1080   -3.5270   -2.1660 C   0  0
   -5.1520   -2.1600    2.4450 H   0  0
   -5.5800   -0.8890   -1.6560 H   0  0
   -4.4960   -2.2230   -1.3550 H   0  0
   -3.1170   -0.3770   -1.6930 H   0  0
   -4.0720    0.7130   -0.7190 H   0  0
   -2.7790   -0.6330    3.5330 H   0  0
   -3.0000   -2.3670    3.4020 H   0  0
   -0.5940   -1.7640    3.4610 H   0  0
   -1.0200   -2.5800    1.9750 H   0  0
   -1.3050    0.4300   -1.5700 H   0  0
   -0.6680    0.4180    2.3710 H   0  0
    0.7290   -0.5700   -1.3200 H   0  0
    1.0820    1.1210   -1.4980 H   0  0
    0.8200   -1.6760    0.7700 H   0  0
   -0.1090    2.7360   -2.2130 H   0  0
   -2.2300    1.8440    1.4340 H   0  0
    1.8320   -1.9260    2.8580 H   0  0
    1.5590   -0.2690    3.3180 H   0  0
   -0.5640    5.1490   -1.8830 H   0  0
   -2.6840    4.2580    1.7580 H   0  0
    0.3240    1.9340    1.5470 H   0  0
    1.6970    2.5220    0.6150 H   0  0
    1.9630    1.6920    2.1450 H   0  0
    3.5510    0.3500    2.4860 H   0  0
    3.9200   -1.2770    2.0220 H   0  0
    3.4510    1.3130   -0.7810 H   0  0
   -1.6870    8.0710   -0.5430 H   0  0
   -0.2710    6.9160   -0.8420 H   0  0
   -1.7540    6.8260   -1.7890 H   0  0
    3.2440   -4.7680   -0.5370 H   0  0
    3.0510   -5.3710   -2.1800 H   0  0
    1.8150   -4.3360   -1.4710 H   0  0
    3.5330   -2.0450   -3.8950 H   0  0
    1.9820   -2.7440   -3.4340 H   0  0
    3.2230   -3.7580   -4.1680 H   0  0
    5.6490   -2.6580   -2.5410 H   0  0
    5.3260   -4.3670   -2.8280 H   0  0
    5.5080   -3.7700   -1.1820 H   0  0
  1  2  2  0
  2  3  1  0
  2  4  1  0
  3  5  2  0
  4  6  1  0
  5  7  1  0
  5  8  1  0
  7  9  2  0
  8 10  1  0
  9 11  1  0
  9 12  1  0
 11 13  1  0
 11 14  1  0
 12 15  1  0
 13 16  2  0
 13 17  1  0
 14 18  1  0
 15 19  1  0
 16 20  1  0
 17 21  2  0
 18 22  1  0
 18 23  1  0
 19 24  1  0
 20 25  2  0
 22 26  1  0
 22 27  1  0
 25 28  1  0
 27 29  3  0
 28 30  1  0
 29 31  1  0
 31 32  1  0
 31 33  1  0
 31 34  1  0
  6  7  1  0
 12 10  1  0
 15 18  1  0
 21 25  1  0
 22 24  1  0
  3 35  1  0
  4 36  1  0
  4 37  1  0
  6 38  1  0
  6 39  1  0
  8 40  1  0
  8 41  1  0
 10 42  1  0
 10 43  1  0
 11 44  1  0
 12 45  1  0
 14 46  1  0
 14 47  1  0
 15 48  1  0
 16 49  1  0
 17 50  1  0
 19 51  1  0
 19 52  1  0
 20 53  1  0
 21 54  1  0
 23 55  1  0
 23 56  1  0
 23 57  1  0
 24 58  1  0
 24 59  1  0
 26 60  1  0
 30 61  1  0
 30 62  1  0
 30 63  1  0
 32 64  1  0
 32 65  1  0
 32 66  1  0
 33 67  1  0
 33 68  1  0
 33 69  1  0
 34 70  1  0
 34 71  1  0
 34 72  1  0
M  END
> <Name>
CHEMBL4161175

> <IC50 nM>
16.6

> <Molecule_ChEMBL_ID>
CHEMBL4161175

> <Smiles>
COc1ccc([C@H]2C[C@@]3(C)[C@@H](CC[C@@]3(O)C#CC(C)(C)C)[C@@H]3CCC4=CC(=O)CCC4=C32)cc1

$$$$
CHEMBL5191702
  SciTegic08162514323D

 29 30  0  0  0  0            999 V2000
    0.3090   -0.4430   -1.0530 S   0  0
   -1.0040    0.6040   -0.8810 C   0  0
    0.9100   -0.5740    0.5860 C   0  0
   -1.3520    1.1270    0.3790 C   0  0
   -1.7830    0.9770   -1.9920 C   0  0
    2.1070   -1.4920    0.6110 C   0  0
   -2.4430    2.0000    0.5270 C   0  0
   -2.8770    1.8480   -1.8560 C   0  0
    3.3730   -0.9410    0.5390 N   0  0
    1.9100   -2.8320    0.7030 C   0  0
   -3.2090    2.3610   -0.5920 C   0  0
    4.4650   -1.7830    0.5620 C   0  0
    2.9550   -3.7320    0.7300 N   0  0
   -4.3650    3.2830   -0.4410 C   0  0
    5.5860   -1.3320    0.5020 O   0  0
    4.2460   -3.2520    0.6620 C   0  0
   -3.9300    4.4830    0.0620 F   0  0
   -5.2790    2.7310    0.4180 F   0  0
    5.1840   -4.0140    0.6840 O   0  0
    0.1250   -0.9710    1.2300 H   0  0
    1.1930    0.4140    0.9490 H   0  0
   -0.7700    0.8560    1.2480 H   0  0
   -1.5350    0.5880   -2.9690 H   0  0
   -2.6890    2.3870    1.5060 H   0  0
   -3.4570    2.1190   -2.7270 H   0  0
    3.4960    0.0490    0.4730 H   0  0
    0.8910   -3.1870    0.7540 H   0  0
    2.7730   -4.7150    0.7990 H   0  0
   -4.8300    3.4430   -1.4140 H   0  0
  1  2  1  0
  1  3  1  0
  2  4  2  0
  2  5  1  0
  3  6  1  0
  4  7  1  0
  5  8  2  0
  6  9  1  0
  6 10  2  0
  7 11  2  0
  9 12  1  0
 10 13  1  0
 11 14  1  0
 12 15  2  0
 12 16  1  0
 14 17  1  0
 14 18  1  0
 16 19  2  0
  8 11  1  0
 13 16  1  0
  3 20  1  0
  3 21  1  0
  4 22  1  0
  5 23  1  0
  7 24  1  0
  8 25  1  0
  9 26  1  0
 10 27  1  0
 13 28  1  0
 14 29  1  0
M  END
> <Name>
CHEMBL5191702

> <IC50 nM>
10000

> <Molecule_ChEMBL_ID>
CHEMBL5191702

> <Smiles>
O=c1[nH]cc(CSc2ccc(C(F)F)cc2)[nH]c1=O

$$$$
CHEMBL3935790
  SciTegic08162514323D

 65 68  0  0  1  0            999 V2000
    7.4940    5.9630   -0.5140 F   0  0
    7.0080    4.7290   -0.4180 C   0  0
    7.6370    3.7850    0.4140 C   0  0
    5.8630    4.3650   -1.1480 C   0  0
    7.1230    2.4820    0.5160 C   0  0
    5.3460    3.0620   -1.0490 C   0  0
    5.9750    2.1170   -0.2170 C   0  0
    5.4790    0.8550   -0.1190 N   0  0
    6.2290   -0.2990   -0.0960 N   0  0
    4.1700    0.5020   -0.0290 C   0  0
    5.4980   -1.4650    0.0100 C   0  0
    4.2440   -0.8770    0.0450 C   0  0
    2.9470    1.2130   -0.0020 C   0  0
    3.0490   -1.6330    0.1520 C   0  0
    1.7500    0.4630    0.1050 C   0  0
    1.7990   -0.9550    0.1820 C   0  0
    0.6620   -1.6580    0.2830 O   0  0
   -0.5410   -1.0470   -0.1580 C   0  0  2  0  0  0
   -1.1420   -0.2750    0.9590 C   0  0
   -1.4960   -2.1210   -0.6800 C   0  0  1  0  0  0
   -1.7340    0.9770    0.7110 C   0  0
   -1.1230   -0.7930    2.2660 C   0  0
   -2.7110   -1.5180   -1.2420 N   0  0
   -0.8340   -3.0610   -1.6880 C   0  0
   -2.3050    1.7070    1.7680 C   0  0
   -1.6930   -0.0610    3.3200 C   0  0
   -3.8260   -2.2870   -1.4140 C   0  0
   -2.2850    1.1910    3.0740 C   0  0
   -3.8120   -3.4570   -1.1070 O   0  0
   -5.0620   -1.6520   -1.9920 C   0  0
   -2.8200    1.8750    4.0660 O   0  0
   -4.5040   -1.7070   -3.4140 C   0  0
   -5.2690   -0.2210   -1.4940 C   0  0
   -6.3050   -2.5250   -1.8130 C   0  0
   -2.6930    1.3550    5.3810 C   0  0
    8.5160    4.0610    0.9770 H   0  0
    5.3750    5.0880   -1.7890 H   0  0
    7.6210    1.7710    1.1600 H   0  0
    4.4650    2.8030   -1.6190 H   0  0
    5.8500   -2.4880    0.0470 H   0  0
    2.9240    2.2910   -0.0630 H   0  0
    3.0740   -2.7110    0.2110 H   0  0
    0.7990    0.9730    0.1270 H   0  0
   -0.2930   -0.3360   -0.9470 H   0  0
   -1.9280   -2.6860    0.1460 H   0  0
   -1.7540    1.3810   -0.2910 H   0  0
   -0.6700   -1.7540    2.4630 H   0  0
   -2.7250   -0.5490   -1.4960 H   0  0
   -1.5080   -3.8580   -2.0060 H   0  0
    0.0530   -3.5260   -1.2580 H   0  0
   -0.5230   -2.5140   -2.5780 H   0  0
   -2.7580    2.6680    1.5720 H   0  0
   -1.6760   -0.4650    4.3220 H   0  0
   -4.1840   -2.7130   -3.6860 H   0  0
   -3.6430   -1.0470   -3.5160 H   0  0
   -5.2540   -1.3890   -4.1370 H   0  0
   -5.2050   -0.1560   -0.4080 H   0  0
   -6.2480    0.1520   -1.7930 H   0  0
   -4.5160    0.4450   -1.9140 H   0  0
   -6.5840   -2.6230   -0.7640 H   0  0
   -6.1330   -3.5270   -2.2050 H   0  0
   -7.1540   -2.1000   -2.3460 H   0  0
   -3.2540    0.4220    5.4340 H   0  0
   -1.6330    1.2970    5.6250 H   0  0
   -3.1560    2.0610    6.0720 H   0  0
  1  2  1  0
  2  3  2  0
  2  4  1  0
  3  5  1  0
  4  6  2  0
  5  7  2  0
  7  8  1  0
  8  9  1  0
  8 10  1  0
  9 11  2  0
 10 12  1  0
 10 13  2  0
 12 14  2  0
 13 15  1  0
 14 16  1  0
 16 17  1  0
 18 17  1  0
 18 19  1  0
 18 20  1  0
 19 21  2  0
 19 22  1  0
 20 23  1  0
 20 24  1  0
 21 25  1  0
 22 26  2  0
 23 27  1  0
 25 28  2  0
 27 29  2  0
 27 30  1  0
 28 31  1  0
 30 32  1  0
 30 33  1  0
 30 34  1  0
 31 35  1  0
  6  7  1  0
 11 12  1  0
 15 16  2  0
 26 28  1  0
  3 36  1  0
  4 37  1  0
  5 38  1  0
  6 39  1  0
 11 40  1  0
 13 41  1  0
 14 42  1  0
 15 43  1  0
 18 44  1  0
 20 45  1  0
 21 46  1  0
 22 47  1  0
 23 48  1  0
 24 49  1  0
 24 50  1  0
 24 51  1  0
 25 52  1  0
 26 53  1  0
 32 54  1  0
 32 55  1  0
 32 56  1  0
 33 57  1  0
 33 58  1  0
 33 59  1  0
 34 60  1  0
 34 61  1  0
 34 62  1  0
 35 63  1  0
 35 64  1  0
 35 65  1  0
M  END
> <Name>
CHEMBL3935790

> <IC50 nM>
0.25

> <Molecule_ChEMBL_ID>
CHEMBL3935790

> <Smiles>
COc1ccc([C@@H](Oc2ccc3c(cnn3-c3ccc(F)cc3)c2)[C@H](C)NC(=O)C(C)(C)C)cc1

$$$$
CHEMBL3960682
  SciTegic08162514323D

 57 61  0  0  1  0            999 V2000
    6.9360    5.9400   -1.7890 F   0  0
    6.4490    4.7030   -1.6930 C   0  0
    6.9830    3.6740   -2.4860 C   0  0
    5.3990    4.4300   -0.7990 C   0  0
    6.4690    2.3690   -2.3870 C   0  0
    4.8830    3.1250   -0.6970 C   0  0
    5.4160    2.0920   -1.4920 C   0  0
    4.9180    0.8320   -1.3940 N   0  0
    5.6680   -0.3240   -1.3710 N   0  0
    3.6110    0.4770   -1.3030 C   0  0
    4.9400   -1.4900   -1.2660 C   0  0
    3.6860   -0.9000   -1.2300 C   0  0
    2.3890    1.1880   -1.2770 C   0  0
    2.4900   -1.6560   -1.1230 C   0  0
    1.1920    0.4380   -1.1700 C   0  0
    1.2400   -0.9800   -1.0920 C   0  0
    0.1040   -1.6840   -0.9900 O   0  0
   -1.0470   -1.0190   -0.4860 C   0  0  2  0  0  0
   -0.7400   -0.4450    0.8500 C   0  0
   -2.2150   -2.0060   -0.4220 C   0  0  1  0  0  0
   -1.1350    0.8690    1.1580 C   0  0
   -0.0550   -1.2150    1.8090 C   0  0
   -3.4450   -1.3340    0.0200 N   0  0
   -2.4350   -2.7460   -1.7400 C   0  0
   -0.8460    1.4120    2.4220 C   0  0
    0.2340   -0.6720    3.0720 C   0  0
   -4.4410   -2.0700    0.5940 C   0  0
   -0.1620    0.6430    3.3790 C   0  0
   -4.3140   -3.2640    0.7380 O   0  0
   -5.6620   -1.4080    1.0310 C   0  0
   -6.6760   -2.1440    1.6110 O   0  0
   -6.0290   -0.1170    0.9750 N   0  0
   -7.6620   -1.2210    1.8990 C   0  0
   -7.2440   -0.0040    1.5020 N   0  0
   -8.9960   -1.5160    2.5510 C   0  0
    7.7890    3.8810   -3.1760 H   0  0
    4.9870    5.2190   -0.1870 H   0  0
    6.8910    1.5900   -3.0060 H   0  0
    4.0760    2.9340   -0.0040 H   0  0
    5.2910   -2.5120   -1.2280 H   0  0
    2.3650    2.2660   -1.3360 H   0  0
    2.5160   -2.7360   -1.0620 H   0  0
    0.2400    0.9470   -1.1480 H   0  0
   -1.3090   -0.2170   -1.1760 H   0  0
   -1.9900   -2.8240    0.2620 H   0  0
   -1.6620    1.4650    0.4280 H   0  0
    0.2520   -2.2250    1.5780 H   0  0
   -3.5530   -0.3460   -0.1010 H   0  0
   -3.2540   -3.4610   -1.6480 H   0  0
   -2.6640   -2.0430   -2.5430 H   0  0
   -1.5410   -3.2990   -2.0270 H   0  0
   -1.1480    2.4220    2.6580 H   0  0
    0.7600   -1.2640    3.8070 H   0  0
    0.0610    1.0610    4.3500 H   0  0
   -9.6310   -0.6390    2.6860 H   0  0
   -8.8320   -1.9630    3.5290 H   0  0
   -9.5470   -2.2340    1.9430 H   0  0
  1  2  1  0
  2  3  2  0
  2  4  1  0
  3  5  1  0
  4  6  2  0
  5  7  2  0
  7  8  1  0
  8  9  1  0
  8 10  1  0
  9 11  2  0
 10 12  1  0
 10 13  2  0
 12 14  2  0
 13 15  1  0
 14 16  1  0
 16 17  1  0
 18 17  1  0
 18 19  1  0
 18 20  1  0
 19 21  2  0
 19 22  1  0
 20 23  1  0
 20 24  1  0
 21 25  1  0
 22 26  2  0
 23 27  1  0
 25 28  2  0
 27 29  2  0
 27 30  1  0
 30 31  1  0
 30 32  2  0
 31 33  1  0
 32 34  1  0
 33 35  1  0
  6  7  1  0
 11 12  1  0
 15 16  2  0
 26 28  1  0
 33 34  2  0
  3 36  1  0
  4 37  1  0
  5 38  1  0
  6 39  1  0
 11 40  1  0
 13 41  1  0
 14 42  1  0
 15 43  1  0
 18 44  1  0
 20 45  1  0
 21 46  1  0
 22 47  1  0
 23 48  1  0
 24 49  1  0
 24 50  1  0
 24 51  1  0
 25 52  1  0
 26 53  1  0
 28 54  1  0
 35 55  1  0
 35 56  1  0
 35 57  1  0
M  END
> <Name>
CHEMBL3960682

> <IC50 nM>
0.09

> <Molecule_ChEMBL_ID>
CHEMBL3960682

> <Smiles>
Cc1nnc(C(=O)N[C@@H](C)[C@H](Oc2ccc3c(cnn3-c3ccc(F)cc3)c2)c2ccccc2)o1

$$$$
CHEMBL5282207
  SciTegic08162514323D

 47 50  0  0  0  0            999 V2000
    6.6540   -5.3300    1.4220 Cl  0  0
    5.4820   -4.0980    1.1800 C   0  0
    5.5080   -2.9140    1.9420 C   0  0
    4.4800   -4.2720    0.2050 C   0  0
    6.4900   -2.7190    2.9160 N   0  3
    4.5470   -1.9100    1.7360 C   0  0
    3.5160   -3.2700   -0.0020 C   0  0
    6.7560   -3.6640    3.6250 O   0  0
    7.0060   -1.6040    2.9750 O   0  5
    3.5510   -2.0900    0.7620 C   0  0
    2.3670   -0.8590    0.5040 S   0  0
    2.6820   -0.1780   -0.7380 O   0  0
    2.3670    0.0210    1.6580 O   0  0
    0.8750   -1.4730    0.3600 N   0  0
   -0.1780   -0.6520    0.2310 C   0  0
   -1.4940   -1.1720    0.2190 C   0  0
    0.0140    0.7420    0.1040 C   0  0
   -2.6150   -0.3140    0.0800 C   0  0
   -1.0960    1.6070   -0.0310 C   0  0
   -2.4280    1.1020   -0.0470 C   0  0
   -3.9730   -0.9160    0.0740 C   0  0
   -3.5080    1.9390   -0.1780 N   0  0
   -4.9880   -0.0270   -0.6540 C   0  0
   -3.3590    3.2990   -0.3340 C   0  0
   -4.9040    1.4180   -0.1500 C   0  0
   -4.0430    4.0660    0.3010 O   0  0
   -2.3750    3.8050   -1.2790 C   0  0
   -1.9730    5.1000   -1.1460 O   0  0
   -1.7600    3.1390   -2.3400 C   0  0
   -1.0700    5.2560   -2.1600 C   0  0
   -0.9080    4.0860   -2.9120 C   0  0
    4.4410   -5.1720   -0.3910 H   0  0
    4.5720   -1.0040    2.3240 H   0  0
    2.7480   -3.4060   -0.7500 H   0  0
    0.7380   -2.4650    0.3670 H   0  0
   -1.6580   -2.2360    0.3150 H   0  0
    1.0080    1.1660    0.1100 H   0  0
   -0.8910    2.6640   -0.1230 H   0  0
   -3.9570   -1.9000   -0.3940 H   0  0
   -4.2890   -1.0630    1.1080 H   0  0
   -4.7990   -0.0550   -1.7280 H   0  0
   -5.9980   -0.4160   -0.5120 H   0  0
   -5.5510    2.0510   -0.7600 H   0  0
   -5.2760    1.4770    0.8750 H   0  0
   -1.9060    2.1130   -2.6500 H   0  0
   -0.5470    6.1840   -2.3480 H   0  0
   -0.2580    3.9450   -3.7660 H   0  0
  1  2  1  0
  2  3  2  0
  2  4  1  0
  3  5  1  0
  3  6  1  0
  4  7  2  0
  5  8  2  0
  5  9  1  0
  6 10  2  0
 10 11  1  0
 11 12  2  0
 11 13  2  0
 11 14  1  0
 14 15  1  0
 15 16  2  0
 15 17  1  0
 16 18  1  0
 17 19  2  0
 18 20  2  0
 18 21  1  0
 20 22  1  0
 21 23  1  0
 22 24  1  0
 22 25  1  0
 24 26  2  0
 24 27  1  0
 27 28  1  0
 27 29  2  0
 28 30  1  0
 29 31  1  0
  7 10  1  0
 19 20  1  0
 23 25  1  0
 30 31  2  0
  4 32  1  0
  6 33  1  0
  7 34  1  0
 14 35  1  0
 16 36  1  0
 17 37  1  0
 19 38  1  0
 21 39  1  0
 21 40  1  0
 23 41  1  0
 23 42  1  0
 25 43  1  0
 25 44  1  0
 29 45  1  0
 30 46  1  0
 31 47  1  0
M  CHG  2   5   1   9  -1
M  END
> <Name>
CHEMBL5282207

> <IC50 nM>
260

> <Molecule_ChEMBL_ID>
CHEMBL5282207

> <Smiles>
O=C(c1ccco1)N1CCCc2cc(NS(=O)(=O)c3ccc(Cl)c([N+](=O)[O-])c3)ccc21

$$$$
CHEMBL5274676
  SciTegic08162514323D

 82 86  0  0  0  0            999 V2000
    3.1680   -1.0470    1.1430 S   0  0
    3.8560   -2.2030    1.6890 O   0  0
    3.9400   -0.3460    0.1310 O   0  0
    1.8090   -1.5760    0.4390 N   0  0
    2.8420    0.0510    2.4340 C   0  0
    1.7210   -3.1000   -0.1070 S   0  0
    0.7560   -0.7560    0.3110 C   0  0
    3.5000    1.2910    2.4810 C   0  0
    1.9180   -0.2970    3.4340 C   0  0
    3.0740   -3.5370   -0.3960 O   0  0
    1.0680   -3.8950    0.9160 O   0  0
    0.7910   -3.2130   -1.5570 C   0  0
   -0.5610   -1.2750    0.2970 C   0  0
    0.9470    0.6390    0.1840 C   0  0
    3.2360    2.1860    3.5310 C   0  0
    1.6520    0.5980    4.4840 C   0  0
   -0.2660   -4.1350   -1.6410 C   0  0
    1.0960   -2.3850   -2.6500 C   0  0
   -1.6820   -0.4160    0.1580 C   0  0
   -0.1600    1.5040    0.0470 C   0  0
    2.3110    1.8400    4.5350 C   0  0
   -1.0230   -4.2270   -2.8220 C   0  0
    0.3380   -2.4770   -3.8320 C   0  0
   -1.4940    0.9980    0.0310 C   0  0
   -3.0410   -1.0180    0.1540 C   0  0
    2.0310    2.7870    5.6470 C   0  0
   -0.7210   -3.3990   -3.9180 C   0  0
   -2.5720    1.8380   -0.1020 N   0  0
   -4.0530   -0.1310   -0.5800 C   0  0
    0.8340    3.4300    4.9470 C   0  0
    3.1860    3.7660    5.8580 C   0  0
    1.6390    2.0490    6.9280 C   0  0
   -1.5210   -3.4980   -5.1660 C   0  0
   -2.4260    3.1950   -0.2640 C   0  0
   -3.9690    1.3120   -0.0680 C   0  0
   -1.5680   -2.1620   -5.9120 C   0  0
   -2.9120   -4.0720   -4.9000 C   0  0
   -0.5820   -4.5080   -5.8240 C   0  0
   -3.1480    3.9610    0.3280 O   0  0
   -1.3930    3.7050   -1.1520 C   0  0
   -0.9920    2.9100   -2.1860 O   0  0
   -0.7280    4.9320   -1.1050 C   0  0
   -0.0390    3.6620   -2.8110 C   0  0
    0.1540    4.9020   -2.1880 C   0  0
    4.2110    1.5590    1.7110 H   0  0
    1.4120   -1.2500    3.3950 H   0  0
   -0.7250   -2.3400    0.3950 H   0  0
    1.9410    1.0620    0.1890 H   0  0
    3.7440    3.1390    3.5650 H   0  0
    0.9410    0.3260    5.2500 H   0  0
   -0.4980   -4.7720   -0.7990 H   0  0
    1.9080   -1.6760   -2.5860 H   0  0
    0.0450    2.5620   -0.0450 H   0  0
   -1.8340   -4.9380   -2.8810 H   0  0
    0.5740   -1.8380   -4.6700 H   0  0
   -3.0250   -2.0060   -0.3090 H   0  0
   -3.3570   -1.1580    1.1890 H   0  0
   -3.8540   -0.1520   -1.6520 H   0  0
   -5.0610   -0.5200   -0.4430 H   0  0
    0.0470    2.7050    4.7360 H   0  0
    1.1350    3.8790    4.0000 H   0  0
    0.4020    4.2190    5.5650 H   0  0
    4.1470    3.2520    5.9160 H   0  0
    3.0530    4.3260    6.7830 H   0  0
    3.2400    4.4820    5.0390 H   0  0
    2.3260    1.2340    7.1520 H   0  0
    0.6390    1.6270    6.8380 H   0  0
    1.6390    2.7300    7.7790 H   0  0
   -4.6250    1.9470   -0.6660 H   0  0
   -4.3320    1.3650    0.9590 H   0  0
   -0.6050   -1.9160   -6.3610 H   0  0
   -1.8380   -1.3540   -5.2360 H   0  0
   -2.3110   -2.1930   -6.7090 H   0  0
   -2.8710   -5.1250   -4.6230 H   0  0
   -3.5430   -3.9850   -5.7850 H   0  0
   -3.4020   -3.5350   -4.0880 H   0  0
   -0.5060   -5.4120   -5.2210 H   0  0
   -0.9360   -4.7740   -6.8200 H   0  0
    0.4220   -4.0920   -5.9280 H   0  0
   -0.8650    5.7300   -0.3910 H   0  0
    0.4980    3.3280   -3.6880 H   0  0
    0.8460    5.6800   -2.4840 H   0  0
  1  2  2  0
  1  3  2  0
  1  4  1  0
  1  5  1  0
  4  6  1  0
  4  7  1  0
  5  8  2  0
  5  9  1  0
  6 10  2  0
  6 11  2  0
  6 12  1  0
  7 13  2  0
  7 14  1  0
  8 15  1  0
  9 16  2  0
 12 17  2  0
 12 18  1  0
 13 19  1  0
 14 20  2  0
 15 21  2  0
 17 22  1  0
 18 23  2  0
 19 24  2  0
 19 25  1  0
 21 26  1  0
 22 27  2  0
 24 28  1  0
 25 29  1  0
 26 30  1  0
 26 31  1  0
 26 32  1  0
 27 33  1  0
 28 34  1  0
 28 35  1  0
 33 36  1  0
 33 37  1  0
 33 38  1  0
 34 39  2  0
 34 40  1  0
 40 41  1  0
 40 42  2  0
 41 43  1  0
 42 44  1  0
 16 21  1  0
 20 24  1  0
 23 27  1  0
 29 35  1  0
 43 44  2  0
  8 45  1  0
  9 46  1  0
 13 47  1  0
 14 48  1  0
 15 49  1  0
 16 50  1  0
 17 51  1  0
 18 52  1  0
 20 53  1  0
 22 54  1  0
 23 55  1  0
 25 56  1  0
 25 57  1  0
 29 58  1  0
 29 59  1  0
 30 60  1  0
 30 61  1  0
 30 62  1  0
 31 63  1  0
 31 64  1  0
 31 65  1  0
 32 66  1  0
 32 67  1  0
 32 68  1  0
 35 69  1  0
 35 70  1  0
 36 71  1  0
 36 72  1  0
 36 73  1  0
 37 74  1  0
 37 75  1  0
 37 76  1  0
 38 77  1  0
 38 78  1  0
 38 79  1  0
 42 80  1  0
 43 81  1  0
 44 82  1  0
M  END
> <Name>
CHEMBL5274676

> <IC50 nM>
10000

> <Molecule_ChEMBL_ID>
CHEMBL5274676

> <Smiles>
CC(C)(C)c1ccc(S(=O)(=O)N(c2ccc3c(c2)CCCN3C(=O)c2ccco2)S(=O)(=O)c2ccc(C(C)(C)C)cc2)cc1

$$$$
CHEMBL5281555
  SciTegic08162514323D

 55 59  0  0  0  0            999 V2000
   -0.8730   -1.2830    1.0680 S   0  0
    0.0000   -2.4430    1.1060 O   0  0
   -0.8850   -0.5350    2.3150 O   0  0
   -0.3200   -0.2930   -0.0880 N   0  0
   -2.4670   -1.8180    0.7480 C   0  0
    0.8850    0.2830    0.0410 C   0  0
   -3.4080   -0.9300    0.1780 C   0  0
   -2.8420   -3.1480    1.0530 C   0  0
    1.7210   -0.0430    1.1330 C   0  0
    1.3340    1.2230   -0.9140 C   0  0
   -4.7290   -1.3710   -0.0860 C   0  0
   -4.1580   -3.5920    0.7890 C   0  0
    2.9980    0.5610    1.2790 C   0  0
    2.6020    1.8300   -0.7790 C   0  0
   -5.1040   -2.7050    0.2190 C   0  0
   -5.7460   -0.4730   -0.6800 C   0  0
    3.4590    1.5140    0.3150 C   0  0
    3.8320    0.1840    2.4510 C   0  0
   -6.4940   -3.1290   -0.0720 C   0  0
   -7.1070   -0.6040    0.0370 C   0  0
    4.6940    2.1000    0.4470 N   0  0
    5.3240    0.3890    2.1740 C   0  0
   -7.5220   -2.0610    0.3590 C   0  0
    5.1760    3.0020   -0.4730 C   0  0
    5.5820    1.7890    1.6060 C   0  0
    5.7290    4.0120   -0.1050 O   0  0
    5.0100    2.7250   -1.8930 C   0  0
    4.8690    1.4260   -2.2750 O   0  0
    4.9710    3.6250   -2.9590 C   0  0
    4.7360    1.5100   -3.6330 C   0  0
    4.7950    2.8320   -4.0920 C   0  0
   -0.8770   -0.1110   -0.8980 H   0  0
   -3.1170    0.0840   -0.0550 H   0  0
   -2.1230   -3.8260    1.4880 H   0  0
    1.3910   -0.7600    1.8730 H   0  0
    0.7150    1.4920   -1.7580 H   0  0
   -4.4360   -4.6090    1.0250 H   0  0
    2.8930    2.5410   -1.5390 H   0  0
   -5.8610   -0.7340   -1.7300 H   0  0
   -5.4160    0.5660   -0.6560 H   0  0
    3.5270    0.7950    3.3010 H   0  0
    3.6580   -0.8550    2.7330 H   0  0
   -6.5760   -3.2990   -1.1460 H   0  0
   -6.7270   -4.0800    0.4080 H   0  0
   -7.8810   -0.1190   -0.5620 H   0  0
   -7.0660   -0.0390    0.9690 H   0  0
    5.6760   -0.3650    1.4650 H   0  0
    5.9010    0.2420    3.0880 H   0  0
   -8.4880   -2.2830   -0.0960 H   0  0
   -7.6820   -2.1430    1.4360 H   0  0
    5.4140    2.5410    2.3790 H   0  0
    6.6290    1.8730    1.3110 H   0  0
    5.0610    4.7030   -2.9180 H   0  0
    4.6060    0.6450   -4.2700 H   0  0
    4.7170    3.1680   -5.1170 H   0  0
  1  2  2  0
  1  3  2  0
  1  4  1  0
  1  5  1  0
  4  6  1  0
  5  7  2  0
  5  8  1  0
  6  9  2  0
  6 10  1  0
  7 11  1  0
  8 12  2  0
  9 13  1  0
 10 14  2  0
 11 15  2  0
 11 16  1  0
 13 17  2  0
 13 18  1  0
 15 19  1  0
 16 20  1  0
 17 21  1  0
 18 22  1  0
 19 23  1  0
 21 24  1  0
 21 25  1  0
 24 26  2  0
 24 27  1  0
 27 28  1  0
 27 29  2  0
 28 30  1  0
 29 31  1  0
 12 15  1  0
 14 17  1  0
 20 23  1  0
 22 25  1  0
 30 31  2  0
  4 32  1  0
  7 33  1  0
  8 34  1  0
  9 35  1  0
 10 36  1  0
 12 37  1  0
 14 38  1  0
 16 39  1  0
 16 40  1  0
 18 41  1  0
 18 42  1  0
 19 43  1  0
 19 44  1  0
 20 45  1  0
 20 46  1  0
 22 47  1  0
 22 48  1  0
 23 49  1  0
 23 50  1  0
 25 51  1  0
 25 52  1  0
 29 53  1  0
 30 54  1  0
 31 55  1  0
M  END
> <Name>
CHEMBL5281555

> <IC50 nM>
4070

> <Molecule_ChEMBL_ID>
CHEMBL5281555

> <Smiles>
O=C(c1ccco1)N1CCCc2cc(NS(=O)(=O)c3ccc4c(c3)CCCC4)ccc21

$$$$
CHEMBL5285277
  SciTegic08162514323D

 64 68  0  0  0  0            999 V2000
   -1.6840    1.3930    1.8160 S   0  0
   -1.5680    0.9720    3.2010 O   0  0
   -1.9900    2.8050    1.6700 O   0  0
   -0.2510    1.1290    1.1060 N   0  0
   -2.9740    0.4380    1.0280 C   0  0
    0.6290    2.4840    0.9930 S   0  0
    0.2360   -0.0280    0.6360 C   0  0
   -4.3880    0.6050    1.4540 C   0  0
    0.4680    3.2140    2.2390 O   0  0
    2.0030    2.0920    0.7330 O   0  0
    0.0550    3.5100   -0.3550 C   0  0
    0.9890   -0.0550   -0.5620 C   0  0
    0.0050   -1.2370    1.3310 C   0  0
   -5.4130   -0.0830    0.7800 C   0  0
   -4.7030    1.4530    2.5310 C   0  0
    0.6790    4.8370   -0.5970 C   0  0
    1.5080   -1.2740   -1.0690 C   0  0
    0.5190   -2.4570    0.8370 C   0  0
   -6.7500    0.0750    1.1830 C   0  0
   -6.0410    1.6110    2.9340 C   0  0
    1.4760    5.0440   -1.7370 C   0  0
    0.4740    5.8880    0.3150 C   0  0
    1.2790   -2.5020   -0.3690 C   0  0
    2.2930   -1.2410   -2.3310 C   0  0
   -7.0640    0.9220    2.2600 C   0  0
    2.0660    6.2990   -1.9650 C   0  0
    1.0640    7.1430    0.0860 C   0  0
    1.7790   -3.6860   -0.8510 N   0  0
    2.2620   -2.5910   -3.0550 C   0  0
    1.8600    7.3490   -1.0540 C   0  0
    1.5450   -4.8870   -0.2240 C   0  0
    2.6150   -3.7270   -2.0860 C   0  0
    0.4860   -5.0960    0.3190 O   0  0
    2.5880   -5.9020   -0.2240 C   0  0
    2.2050   -7.2100   -0.2240 O   0  0
    3.9740   -5.7310   -0.2240 C   0  0
    3.3920   -7.8870   -0.2240 C   0  0
    4.4960   -7.0250   -0.2240 C   0  0
   -2.7100   -0.6200    1.0520 H   0  0
   -2.9040    0.5550   -0.0540 H   0  0
   -1.0270    3.6230   -0.2910 H   0  0
    0.0620    2.9320   -1.2790 H   0  0
    1.1760    0.8610   -1.1060 H   0  0
   -0.5660   -1.2460    2.2490 H   0  0
   -5.1780   -0.7360   -0.0490 H   0  0
   -3.9210    1.9850    3.0530 H   0  0
    0.3120   -3.3500    1.4100 H   0  0
   -7.5360   -0.4540    0.6650 H   0  0
   -6.2820    2.2620    3.7620 H   0  0
    1.6380    4.2410   -2.4420 H   0  0
   -0.1370    5.7370    1.1930 H   0  0
    1.9180   -0.4640   -3.0000 H   0  0
    3.3230   -0.9780   -2.0880 H   0  0
   -8.0920    1.0440    2.5700 H   0  0
    2.6770    6.4570   -2.8420 H   0  0
    0.9060    7.9500    0.7870 H   0  0
    1.2710   -2.7620   -3.4780 H   0  0
    2.9580   -2.5830   -3.8950 H   0  0
    2.3130    8.3130   -1.2290 H   0  0
    2.4940   -4.6860   -2.5930 H   0  0
    3.6630   -3.6540   -1.7950 H   0  0
    4.5250   -4.7990   -0.2240 H   0  0
    3.4560   -8.9670   -0.2240 H   0  0
    5.5410   -7.3060   -0.2240 H   0  0
  1  2  2  0
  1  3  2  0
  1  4  1  0
  1  5  1  0
  4  6  1  0
  4  7  1  0
  5  8  1  0
  6  9  2  0
  6 10  2  0
  6 11  1  0
  7 12  2  0
  7 13  1  0
  8 14  2  0
  8 15  1  0
 11 16  1  0
 12 17  1  0
 13 18  2  0
 14 19  1  0
 15 20  2  0
 16 21  2  0
 16 22  1  0
 17 23  2  0
 17 24  1  0
 19 25  2  0
 21 26  1  0
 22 27  2  0
 23 28  1  0
 24 29  1  0
 26 30  2  0
 28 31  1  0
 28 32  1  0
 31 33  2  0
 31 34  1  0
 34 35  1  0
 34 36  2  0
 35 37  1  0
 36 38  1  0
 18 23  1  0
 20 25  1  0
 27 30  1  0
 29 32  1  0
 37 38  2  0
  5 39  1  0
  5 40  1  0
 11 41  1  0
 11 42  1  0
 12 43  1  0
 13 44  1  0
 14 45  1  0
 15 46  1  0
 18 47  1  0
 19 48  1  0
 20 49  1  0
 21 50  1  0
 22 51  1  0
 24 52  1  0
 24 53  1  0
 25 54  1  0
 26 55  1  0
 27 56  1  0
 29 57  1  0
 29 58  1  0
 30 59  1  0
 32 60  1  0
 32 61  1  0
 36 62  1  0
 37 63  1  0
 38 64  1  0
M  END
> <Name>
CHEMBL5285277

> <IC50 nM>
50000

> <Molecule_ChEMBL_ID>
CHEMBL5285277

> <Smiles>
O=C(c1ccco1)N1CCCc2cc(N(S(=O)(=O)Cc3ccccc3)S(=O)(=O)Cc3ccccc3)ccc21

$$$$
CHEMBL5279876
  SciTegic08162514323D

 49 52  0  0  0  0            999 V2000
    2.8810   -2.1130   -1.0270 S   0  0
    2.1660   -2.4750   -2.2400 O   0  0
    4.2580   -2.5740   -1.0160 O   0  0
    2.9080   -0.4960   -0.9400 N   0  0
    2.0610   -2.8200    0.3160 C   0  0
    1.7710    0.2010   -1.0780 C   0  0
    1.5370   -4.1190    0.2110 C   0  0
    1.9200   -2.0960    1.5100 C   0  0
    0.5230   -0.4630   -1.1270 C   0  0
    1.8050    1.6110   -1.1760 C   0  0
    0.8690   -4.6960    1.3070 C   0  0
    1.2520   -2.6720    2.6050 C   0  0
   -0.6860    0.2660   -1.2730 C   0  0
    0.6070    2.3480   -1.3200 C   0  0
    0.7250   -3.9730    2.5040 C   0  0
   -0.6600    1.6950   -1.3710 C   0  0
   -1.9670   -0.4850   -1.3240 C   0  0
    0.0160   -4.5840    3.6680 C   0  0
   -1.8240    2.4080   -1.5100 N   0  0
   -3.1490    0.3770   -0.8630 C   0  0
    0.2830   -4.2580    4.8010 O   0  0
   -0.9470   -5.5240    3.4280 N   0  0
   -1.8340    3.7810   -1.5860 C   0  0
   -3.1490    1.7260   -1.5900 C   0  0
   -2.5330    4.3440   -2.3970 O   0  0
   -0.9940    4.5570   -0.6840 C   0  0
   -0.6640    4.0020    0.5160 O   0  0
   -0.4590    5.8320   -0.8710 C   0  0
    0.1090    4.9610    1.1050 C   0  0
    0.2620    6.0940    0.2970 C   0  0
    3.7720   -0.0180   -0.7830 H   0  0
    1.6460   -4.6760   -0.7070 H   0  0
    2.3220   -1.0960    1.5900 H   0  0
    0.4800   -1.5410   -1.0550 H   0  0
    2.7440    2.1440   -1.1430 H   0  0
    0.4690   -5.6960    1.2190 H   0  0
    1.1460   -2.1080    3.5210 H   0  0
    0.6930    3.4240   -1.3910 H   0  0
   -2.1310   -0.8170   -2.3500 H   0  0
   -1.9160   -1.3830   -0.7070 H   0  0
   -3.0900    0.5390    0.2150 H   0  0
   -4.0880   -0.1470   -1.0430 H   0  0
   -1.4240   -5.9590    4.1910 H   0  0
   -1.1800   -5.7800    2.4900 H   0  0
   -3.4000    1.5820   -2.6430 H   0  0
   -3.9280    2.3630   -1.1660 H   0  0
   -0.5740    6.4780   -1.7310 H   0  0
    0.5490    4.8440    2.0880 H   0  0
    0.8220    6.9900    0.5290 H   0  0
  1  2  2  0
  1  3  2  0
  1  4  1  0
  1  5  1  0
  4  6  1  0
  5  7  2  0
  5  8  1  0
  6  9  2  0
  6 10  1  0
  7 11  1  0
  8 12  2  0
  9 13  1  0
 10 14  2  0
 11 15  2  0
 13 16  2  0
 13 17  1  0
 15 18  1  0
 16 19  1  0
 17 20  1  0
 18 21  2  0
 18 22  1  0
 19 23  1  0
 19 24  1  0
 23 25  2  0
 23 26  1  0
 26 27  1  0
 26 28  2  0
 27 29  1  0
 28 30  1  0
 12 15  1  0
 14 16  1  0
 20 24  1  0
 29 30  2  0
  4 31  1  0
  7 32  1  0
  8 33  1  0
  9 34  1  0
 10 35  1  0
 11 36  1  0
 12 37  1  0
 14 38  1  0
 17 39  1  0
 17 40  1  0
 20 41  1  0
 20 42  1  0
 22 43  1  0
 22 44  1  0
 24 45  1  0
 24 46  1  0
 28 47  1  0
 29 48  1  0
 30 49  1  0
M  END
> <Name>
CHEMBL5279876

> <IC50 nM>
10000

> <Molecule_ChEMBL_ID>
CHEMBL5279876

> <Smiles>
NC(=O)c1ccc(S(=O)(=O)Nc2ccc3c(c2)CCCN3C(=O)c2ccco2)cc1

$$$$
CHEMBL3666804
  SciTegic08162514323D

 78 83  0  0  1  0            999 V2000
   -1.2090   -3.9140  -10.7910 S   0  0
   -0.9690   -3.1680  -12.0140 O   0  0
   -2.0350   -5.1000  -10.9380 O   0  0
   -1.8220   -2.8610   -9.4850 C   0  0
    0.3260   -4.2770   -9.9530 C   0  0
   -0.6190   -2.4940   -8.6170 C   0  0  2  0  0  0
    0.1640   -3.8090   -8.5120 C   0  0
   -1.0000   -1.9390   -7.3050 N   0  0
   -0.0530   -1.3240   -6.5370 C   0  0
    1.0880   -1.2360   -6.9280 O   0  0
   -0.4550   -0.7680   -5.2090 C   0  0
    0.4980   -0.1290   -4.3950 C   0  0
   -1.7870   -0.8830   -4.7760 C   0  0
    0.1190    0.3960   -3.1450 C   0  0
   -2.1660   -0.3590   -3.5270 C   0  0
    1.0390    1.0120   -2.3560 N   0  0
   -1.2150    0.2790   -2.7130 C   0  0
    2.0020    1.8950   -2.7930 N   0  0
    1.1800    0.8810   -1.0140 C   0  0
    2.8240    2.3950   -1.8050 C   0  0
    2.2460    1.7170   -0.7460 C   0  0
    0.5100    0.1390   -0.0120 C   0  0
    2.7050    1.8520    0.5900 C   0  0
    0.9650    0.2700    1.3220 C   0  0
    2.0610    1.1230    1.6250 C   0  0
    2.4840    1.2420    2.8910 O   0  0
    1.6840    0.6820    3.9180 C   0  0  2  0  0  0
    0.3750    1.3540    3.9430 C   0  0
    2.4080    0.8110    5.2580 C   0  0  1  0  0  0
   -0.8090    0.5940    4.1030 C   0  0
    0.3010    2.7620    3.8050 C   0  0
    1.6840    0.0960    6.3200 N   0  0
    3.8650    0.3550    5.1870 C   0  0
   -2.0660    1.2400    4.1230 C   0  0
   -0.9550    3.4120    3.8380 C   0  0
    1.5980    0.6540    7.5640 C   0  0
   -3.1970    0.5160    4.2460 O   0  0
   -2.1390    2.6560    4.0140 C   0  0
    2.1110    1.7250    7.7910 O   0  0
    0.8520   -0.0920    8.6390 C   0  0
   -4.4630    1.1310    3.9730 C   0  0
   -3.3340    3.2770    4.0760 O   0  0
   -0.4570   -0.2750    8.2770 F   0  0
    1.4370   -1.3090    8.8710 F   0  0
    0.9160    0.7560    9.9100 C   0  0
   -4.4810    2.5570    4.5470 C   0  0
   -2.3200   -1.9960   -9.8950 H   0  0
   -2.5510   -3.4240   -8.9160 H   0  0
    1.1210   -3.7230  -10.4360 H   0  0
    0.5660   -5.3280  -10.0220 H   0  0
   -0.0180   -1.7560   -9.1290 H   0  0
   -0.3890   -4.5450   -7.9420 H   0  0
    1.1230   -3.6740   -8.0310 H   0  0
   -1.9410   -2.0080   -6.9750 H   0  0
    1.5210   -0.0470   -4.7380 H   0  0
   -2.5250   -1.3710   -5.3950 H   0  0
   -3.1900   -0.4470   -3.1950 H   0  0
   -1.5270    0.6760   -1.7560 H   0  0
    3.6470    3.0940   -1.8930 H   0  0
   -0.3200   -0.5080   -0.2540 H   0  0
    3.5370    2.5000    0.8300 H   0  0
    0.4780   -0.2830    2.1110 H   0  0
    1.5430   -0.3770    3.7010 H   0  0
    2.5140    1.8590    5.5390 H   0  0
   -0.7560   -0.4800    4.2090 H   0  0
    1.2010    3.3440    3.6720 H   0  0
    1.2600   -0.7890    6.1350 H   0  0
    4.3480    0.4510    6.1600 H   0  0
    3.9300   -0.6820    4.8590 H   0  0
    4.4260    0.9650    4.4770 H   0  0
   -1.0080    4.4860    3.7340 H   0  0
   -4.6060    1.1560    2.8910 H   0  0
   -5.2540    0.5120    4.3980 H   0  0
    0.3950    0.2790   10.7420 H   0  0
    0.4590    1.7320    9.7460 H   0  0
    1.9490    0.9180   10.2150 H   0  0
   -5.3810    3.1020    4.2600 H   0  0
   -4.4410    2.5250    5.6370 H   0  0
  1  2  2  0
  1  3  2  0
  1  4  1  0
  1  5  1  0
  4  6  1  0
  5  7  1  0
  6  8  1  0
  8  9  1  0
  9 10  2  0
  9 11  1  0
 11 12  2  0
 11 13  1  0
 12 14  1  0
 13 15  2  0
 14 16  1  0
 14 17  2  0
 16 18  1  0
 16 19  1  0
 18 20  2  0
 19 21  1  0
 19 22  2  0
 21 23  2  0
 22 24  1  0
 23 25  1  0
 25 26  1  0
 27 26  1  0
 27 28  1  0
 27 29  1  0
 28 30  2  0
 28 31  1  0
 29 32  1  0
 29 33  1  0
 30 34  1  0
 31 35  2  0
 32 36  1  0
 34 37  1  0
 34 38  2  0
 36 39  2  0
 36 40  1  0
 37 41  1  0
 38 42  1  0
 40 43  1  0
 40 44  1  0
 40 45  1  0
 41 46  1  0
  6  7  1  0
 15 17  1  0
 20 21  1  0
 24 25  2  0
 35 38  1  0
 42 46  1  0
  4 47  1  0
  4 48  1  0
  5 49  1  0
  5 50  1  0
  6 51  1  0
  7 52  1  0
  7 53  1  0
  8 54  1  0
 12 55  1  0
 13 56  1  0
 15 57  1  0
 17 58  1  0
 20 59  1  0
 22 60  1  0
 23 61  1  0
 24 62  1  0
 27 63  1  0
 29 64  1  0
 30 65  1  0
 31 66  1  0
 32 67  1  0
 33 68  1  0
 33 69  1  0
 33 70  1  0
 35 71  1  0
 41 72  1  0
 41 73  1  0
 45 74  1  0
 45 75  1  0
 45 76  1  0
 46 77  1  0
 46 78  1  0
M  END
> <Name>
CHEMBL3666804

> <IC50 nM>
0.21

> <Molecule_ChEMBL_ID>
CHEMBL3666804

> <Smiles>
C[C@H](NC(=O)C(C)(F)F)[C@H](Oc1ccc2c(cnn2-c2cccc(C(=O)N[C@H]3CCS(=O)(=O)C3)c2)c1)c1ccc2c(c1)OCCO2

$$$$
CHEMBL1370
  SciTegic08162514323D

 65 69  0  0  1  0            999 V2000
   -6.9710   -0.4570   -1.7070 O   0  0
   -6.0020   -0.2460   -1.0160 C   0  0
   -5.1970   -1.3570   -0.4940 C   0  0
   -5.6020    1.1230   -0.6800 C   0  0
   -4.1290   -1.1390    0.3010 C   0  0
   -4.5450    1.3650    0.1190 C   0  0
   -3.6900    0.2620    0.7340 C   0  0  2  0  0  0
   -3.2950   -2.2950    0.8050 C   0  0
   -2.1840    0.4420    0.3590 C   0  0  1  0  0  0
   -3.9140    0.3300    2.2520 C   0  0
   -1.8130   -2.0840    0.4820 C   0  0
   -1.5820    1.8560    0.6330 C   0  0  1  0  0  0
   -1.3090   -0.7030    0.9410 C   0  0  1  0  0  0
   -1.7830    2.2480    1.9770 O   0  0
   -0.0740    1.9530    0.2990 C   0  0
    0.1390   -0.5140    0.4550 C   0  0  1  0  0  0
    0.7480    0.8150    0.9340 C   0  0  1  0  0  0
    1.1740   -1.5330    0.9360 C   0  0
    2.2270    0.6640    0.4980 C   0  0  1  0  0  0
    0.7300    0.8890    2.4690 C   0  0
    2.5060   -0.8500    0.5980 C   0  0  2  0  0  0
    2.3930    0.8970   -0.8910 O   0  0
    3.2210    1.5310    1.2400 C   0  0
    2.9100   -1.2050   -0.7130 O   0  0
    3.2850   -0.0510   -1.4280 C   0  0  3  0  0  0
    2.8500    2.4420    1.9410 O   0  0
    4.6860    1.2270    1.0760 C   0  0
    3.0450   -0.2360   -2.9200 C   0  0
    5.3890    1.6820    2.2110 O   0  0
    4.0940   -1.1930   -3.4880 C   0  0
    3.9370   -1.4100   -4.9940 C   0  0
   -5.4710   -2.3670   -0.7620 H   0  0
   -6.1640    1.9550   -1.0800 H   0  0
   -4.3030    2.3970    0.3300 H   0  0
   -3.4280   -2.3870    1.8830 H   0  0
   -3.6350   -3.2380    0.3710 H   0  0
   -2.1310    0.3300   -0.7270 H   0  0
   -4.8520   -0.1440    2.5450 H   0  0
   -3.9450    1.3650    2.5900 H   0  0
   -3.1060   -0.1700    2.7830 H   0  0
   -1.2290   -2.8770    0.9510 H   0  0
   -1.6640   -2.1890   -0.5940 H   0  0
   -2.1020    2.5960    0.0250 H   0  0
   -1.3420   -0.6680    2.0310 H   0  0
   -2.5180    2.8830    1.9800 H   0  0
    0.3300    2.9220    0.5980 H   0  0
    0.0270    1.9160   -0.7870 H   0  0
    0.1290   -0.5330   -0.6270 H   0  0
    1.0900   -1.6890    2.0000 H   0  0
    1.0570   -2.4980    0.4610 H   0  0
   -0.2190    0.5470    2.8830 H   0  0
    0.8910    1.9120    2.8070 H   0  0
    1.5210    0.2700    2.8950 H   0  0
    3.2950   -1.1010    1.2930 H   0  0
    4.3010    0.2190   -1.1800 H   0  0
    5.0780    1.7460    0.2030 H   0  0
    4.8320    0.1490    0.9960 H   0  0
    3.0780    0.7230   -3.4360 H   0  0
    2.0390   -0.6130   -3.1040 H   0  0
    6.3240    1.4690    2.0700 H   0  0
    5.1000   -0.8500   -3.2500 H   0  0
    4.0740   -2.1460   -2.9590 H   0  0
    4.7030   -2.0920   -5.3650 H   0  0
    2.9550   -1.8200   -5.2250 H   0  0
    4.0410   -0.4670   -5.5310 H   0  0
  1  2  2  0
  2  3  1  0
  2  4  1  0
  3  5  2  0
  4  6  2  0
  5  7  1  0
  5  8  1  0
  7  9  1  0
  7 10  1  0
  8 11  1  0
  9 12  1  0
  9 13  1  0
 12 14  1  0
 12 15  1  0
 13 16  1  0
 15 17  1  0
 16 18  1  0
 17 19  1  0
 17 20  1  0
 18 21  1  0
 19 22  1  0
 19 23  1  0
 21 24  1  0
 22 25  1  0
 23 26  2  0
 23 27  1  0
 25 28  1  0
 27 29  1  0
 28 30  1  0
 30 31  1  0
  6  7  1  0
 13 11  1  0
 16 17  1  0
 19 21  1  0
 24 25  1  0
  3 32  1  0
  4 33  1  0
  6 34  1  0
  8 35  1  0
  8 36  1  0
  9 37  1  0
 10 38  1  0
 10 39  1  0
 10 40  1  0
 11 41  1  0
 11 42  1  0
 12 43  1  0
 13 44  1  0
 14 45  1  0
 15 46  1  0
 15 47  1  0
 16 48  1  0
 18 49  1  0
 18 50  1  0
 20 51  1  0
 20 52  1  0
 20 53  1  0
 21 54  1  0
 25 55  1  0
 27 56  1  0
 27 57  1  0
 28 58  1  0
 28 59  1  0
 29 60  1  0
 30 61  1  0
 30 62  1  0
 31 63  1  0
 31 64  1  0
 31 65  1  0
M  END
> <Name>
CHEMBL1370

> <IC50 nM>
1.57

> <Molecule_ChEMBL_ID>
CHEMBL1370

> <Smiles>
CCCC1O[C@@H]2C[C@H]3[C@@H]4CCC5=CC(=O)C=C[C@]5(C)[C@H]4[C@@H](O)C[C@]3(C)[C@]2(C(=O)CO)O1

$$$$
CHEMBL5205092
  SciTegic08162514323D

 48 51  0  0  1  0            999 V2000
    0.9220   -2.2400   -3.7730 S   0  0
    2.2640   -1.2290   -3.7560 C   0  0
    2.0800    0.1500   -3.8610 N   0  0
    3.5210   -1.8260   -3.6330 N   0  0
    3.1450    1.0330   -3.8540 C   0  0
    0.7090    0.6820   -3.9860 C   0  0
    4.6910   -0.9020   -3.6190 C   0  0
    2.9840    2.2290   -3.9450 O   0  0
    4.5000    0.4630   -3.7250 C   0  0
    0.0470    0.8010   -2.6600 C   0  0
    5.9960   -1.3380   -3.5020 C   0  0
    5.9670    1.3610   -3.6890 S   0  0
    0.4750    1.7790   -1.7440 C   0  0
   -1.0100   -0.0630   -2.3220 C   0  0
    6.7700   -0.1680   -3.5310 C   0  0
   -0.1520    1.8930   -0.4920 C   0  0
   -1.6390    0.0510   -1.0680 C   0  0
   -1.2090    1.0270   -0.1520 C   0  0
   -1.8750    1.1480    1.1800 C   0  0
   -1.5200    1.9820    1.9790 O   0  0
   -2.9000    0.2970    1.4810 N   0  0
   -3.5670    0.4020    2.7850 C   0  0  2  0  0  0
   -2.6910   -0.0800    3.8870 C   0  0
   -4.9100   -0.3280    2.7750 C   0  0
   -2.2770    0.8090    4.8970 C   0  0
   -2.2750   -1.4240    3.9200 C   0  0
   -1.4490    0.3530    5.9380 C   0  0
   -1.4490   -1.8770    4.9630 C   0  0
   -1.0350   -0.9900    5.9710 C   0  0
    3.6270   -2.8180   -3.5590 H   0  0
    0.7460    1.6600   -4.4650 H   0  0
    0.1270    0.0190   -4.6250 H   0  0
    6.3520   -2.3560   -3.4080 H   0  0
    1.2850    2.4450   -2.0000 H   0  0
   -1.3440   -0.8150   -3.0210 H   0  0
    7.8500   -0.2090   -3.4570 H   0  0
    0.1840    2.6460    0.2050 H   0  0
   -2.4490   -0.6170   -0.8160 H   0  0
   -3.1930   -0.3930    0.8160 H   0  0
   -3.7010    1.4530    3.0350 H   0  0
   -5.5760    0.1030    2.0270 H   0  0
   -4.7720   -1.3870    2.5630 H   0  0
   -5.4010   -0.2440    3.7460 H   0  0
   -2.5920    1.8420    4.8770 H   0  0
   -2.5900   -2.1110    3.1490 H   0  0
   -1.1310    1.0350    6.7130 H   0  0
   -1.1310   -2.9100    4.9880 H   0  0
   -0.4000   -1.3400    6.7720 H   0  0
  1  2  2  0
  2  3  1  0
  2  4  1  0
  3  5  1  0
  3  6  1  0
  4  7  1  0
  5  8  2  0
  5  9  1  0
  6 10  1  0
  7 11  1  0
  9 12  1  0
 10 13  2  0
 10 14  1  0
 11 15  2  0
 13 16  1  0
 14 17  2  0
 16 18  2  0
 18 19  1  0
 19 20  2  0
 19 21  1  0
 21 22  1  0
 22 23  1  0
 22 24  1  0
 23 25  2  0
 23 26  1  0
 25 27  1  0
 26 28  2  0
 27 29  2  0
  7  9  2  0
 12 15  1  0
 17 18  1  0
 28 29  1  0
  4 30  1  0
  6 31  1  0
  6 32  1  0
 11 33  1  0
 13 34  1  0
 14 35  1  0
 15 36  1  0
 16 37  1  0
 17 38  1  0
 21 39  1  0
 22 40  1  0
 24 41  1  0
 24 42  1  0
 24 43  1  0
 25 44  1  0
 26 45  1  0
 27 46  1  0
 28 47  1  0
 29 48  1  0
M  END
> <Name>
CHEMBL5205092

> <IC50 nM>
2050

> <Molecule_ChEMBL_ID>
CHEMBL5205092

> <Smiles>
CC(NC(=O)c1ccc(Cn2c(=S)[nH]c3ccsc3c2=O)cc1)c1ccccc1

$$$$
CHEMBL4453035
  SciTegic08162514323D

 76 81  0  0  1  0            999 V2000
   -5.9820   -0.7910   -3.0270 O   0  0
   -4.9490   -0.6820   -2.4080 C   0  0
   -4.3710   -1.8400   -1.7050 C   0  0
   -4.2170    0.6290   -2.3360 C   0  0
   -3.1620   -1.8010   -1.1000 C   0  0
   -2.7030    0.3950   -2.2870 C   0  0
   -2.2660   -0.5640   -1.1480 C   0  0  2  0  0  0
   -2.6720   -3.0040   -0.3180 C   0  0
   -0.7620   -0.9530   -1.3520 C   0  0  1  0  0  0
   -2.5020    0.1170    0.2110 C   0  0
   -1.1990   -3.3280   -0.5720 C   0  0
    0.2420    0.2420   -1.4040 C   0  0  1  0  0  0
   -0.3050   -2.0900   -0.4000 C   0  0  1  0  0  0
    0.1410    1.1800   -0.2460 C   0  0
    1.7010   -0.2300   -1.6070 C   0  0
    1.1490   -2.4800   -0.7290 C   0  0  1  0  0  0
   -0.1310    0.6800    1.0410 C   0  0
    0.3160    2.5610   -0.4390 C   0  0
    2.1230   -1.3030   -0.5820 C   0  0  1  0  0  0
    1.7970   -3.5470    0.1560 C   0  0
   -0.2270    1.5590    2.1330 C   0  0
    0.2210    3.4410    0.6500 C   0  0
    3.4860   -2.0180   -0.7810 C   0  0  2  0  0  0
    2.0610   -0.7580    0.8590 C   0  0
    3.3090   -3.2970    0.0640 C   0  0
   -0.0510    2.9430    1.9400 C   0  0
    4.5630   -1.2360   -0.2850 O   0  0
    3.7770   -2.3400   -2.1880 C   0  0
   -0.1440    3.8030    3.0040 N   0  0
    4.0270   -2.5980   -3.3220 C   0  0
   -0.2810    3.3590    4.3790 C   0  0
   -0.1170    5.2460    2.8690 C   0  0
    4.3460   -2.8980   -4.7170 C   0  0
   -0.0640    4.6310    5.2010 C   0  0
   -0.5230    5.7560    4.2540 C   0  0
   -4.9490   -2.7500   -1.6720 H   0  0
   -4.4730    1.2480   -3.1950 H   0  0
   -4.5410    1.1720   -1.4490 H   0  0
   -2.1970    1.3560   -2.1910 H   0  0
   -2.3850   -0.0160   -3.2480 H   0  0
   -2.8120   -2.7970    0.7460 H   0  0
   -3.2810   -3.8810   -0.5390 H   0  0
   -0.7110   -1.3930   -2.3520 H   0  0
   -3.5640    0.2250    0.4320 H   0  0
   -2.0570    1.1110    0.2250 H   0  0
   -2.0510   -0.4630    1.0160 H   0  0
   -0.8870   -4.1210    0.1070 H   0  0
   -1.0900   -3.7270   -1.5820 H   0  0
   -0.0080    0.8500   -2.2730 H   0  0
   -0.3730   -1.7500    0.6350 H   0  0
    2.3950    0.6130   -1.5740 H   0  0
    1.7790   -0.6310   -2.6210 H   0  0
    1.1680   -2.8380   -1.7520 H   0  0
   -0.2680   -0.3810    1.1930 H   0  0
    0.5250    2.9490   -1.4260 H   0  0
    1.4670   -3.4410    1.1800 H   0  0
    1.5330   -4.5450   -0.1640 H   0  0
   -0.4370    1.1580    3.1130 H   0  0
    0.3590    4.5020    0.4820 H   0  0
    2.9830   -0.9510    1.4060 H   0  0
    1.2420   -1.2230    1.4100 H   0  0
    1.8930    0.3180    0.8570 H   0  0
    3.6950   -3.1660    1.0660 H   0  0
    3.8300   -4.1520   -0.3460 H   0  0
    5.3520   -1.7990   -0.2990 H   0  0
    0.4410    2.5920    4.6250 H   0  0
   -1.2750    2.9630    4.5310 H   0  0
    0.8850    5.5670    2.6150 H   0  0
   -0.7970    5.5880    2.1000 H   0  0
    5.3150   -3.3910   -4.7850 H   0  0
    4.3790   -1.9790   -5.3030 H   0  0
    3.5880   -3.5550   -5.1430 H   0  0
    0.9840    4.7520    5.4320 H   0  0
   -0.6110    4.6230    6.1330 H   0  0
   -1.5980    5.8650    4.3070 H   0  0
   -0.0800    6.7110    4.4940 H   0  0
  1  2  2  0
  2  3  1  0
  2  4  1  0
  3  5  2  0
  4  6  1  0
  5  7  1  0
  5  8  1  0
  7  9  1  0
  7 10  1  0
  8 11  1  0
  9 12  1  0
  9 13  1  0
 12 14  1  0
 12 15  1  0
 13 16  1  0
 14 17  2  0
 14 18  1  0
 15 19  1  0
 16 20  1  0
 17 21  1  0
 18 22  2  0
 19 23  1  0
 19 24  1  0
 20 25  1  0
 21 26  2  0
 23 27  1  0
 23 28  1  0
 26 29  1  0
 28 30  3  0
 29 31  1  0
 29 32  1  0
 30 33  1  0
 31 34  1  0
 32 35  1  0
  6  7  1  0
 13 11  1  0
 16 19  1  0
 22 26  1  0
 23 25  1  0
 34 35  1  0
  3 36  1  0
  4 37  1  0
  4 38  1  0
  6 39  1  0
  6 40  1  0
  8 41  1  0
  8 42  1  0
  9 43  1  0
 10 44  1  0
 10 45  1  0
 10 46  1  0
 11 47  1  0
 11 48  1  0
 12 49  1  0
 13 50  1  0
 15 51  1  0
 15 52  1  0
 16 53  1  0
 17 54  1  0
 18 55  1  0
 20 56  1  0
 20 57  1  0
 21 58  1  0
 22 59  1  0
 24 60  1  0
 24 61  1  0
 24 62  1  0
 25 63  1  0
 25 64  1  0
 27 65  1  0
 31 66  1  0
 31 67  1  0
 32 68  1  0
 32 69  1  0
 33 70  1  0
 33 71  1  0
 33 72  1  0
 34 73  1  0
 34 74  1  0
 35 75  1  0
 35 76  1  0
M  END
> <Name>
CHEMBL4453035

> <IC50 nM>
57.9

> <Molecule_ChEMBL_ID>
CHEMBL4453035

> <Smiles>
CC#C[C@]1(O)CC[C@H]2[C@@H]3CCC4=CC(=O)CC[C@]4(C)[C@H]3[C@@H](c3ccc(N4CCCC4)cc3)C[C@@]21C

$$$$
CHEMBL4527872
  SciTegic08162514323D

 76 81  0  0  1  0            999 V2000
    4.9360    3.9140    1.5880 O   0  0
    4.1490    3.0450    1.2890 C   0  0
    3.1350    2.5900    2.2540 C   0  0
    4.1720    2.4060   -0.0760 C   0  0
    2.2010    1.6600    1.9570 C   0  0
    2.7810    1.8890   -0.4770 C   0  0
    2.1470    0.9630    0.5960 C   0  0  2  0  0  0
    1.1500    1.3090    2.9960 C   0  0
    0.6480    0.6860    0.2810 C   0  0  1  0  0  0
    2.9340   -0.3510    0.6800 C   0  0
    0.5180   -0.0640    2.7500 C   0  0
    0.2500    0.2520   -1.1520 C   0  0  1  0  0  0
   -0.0780   -0.2050    1.3360 C   0  0  1  0  0  0
    0.6480   -1.1520   -1.4770 C   0  0
   -1.2700    0.5000   -1.3540 C   0  0
   -1.5450    0.2420    1.2170 C   0  0  1  0  0  0
    0.4490   -1.6580   -2.7720 C   0  0
    1.2250   -1.9670   -0.4840 C   0  0
   -2.1480   -0.0250   -0.1900 C   0  0  1  0  0  0
   -2.6170   -0.3440    2.1350 C   0  0
    0.8240   -2.9780   -3.0780 C   0  0
    1.6000   -3.2870   -0.7890 C   0  0
   -3.5370    0.6430    0.0550 C   0  0  2  0  0  0
   -2.3260   -1.5430   -0.3910 C   0  0
   -3.9260    0.0860    1.4510 C   0  0
    1.4000   -3.7950   -2.0860 C   0  0
   -4.4880    0.2540   -0.9220 O   0  0
   -3.4650    2.1170    0.0640 C   0  0
    1.7660   -5.0820   -2.3850 N   0  0
   -3.3690    3.3070    0.0880 C   0  0
    2.3690   -5.9320   -1.3480 C   0  0
    1.5660   -5.6350   -3.7310 C   0  0
   -3.2070    4.7600    0.1250 C   0  0
   -3.2970    5.4900    1.4510 C   0  0
   -4.3890    5.6620    0.4180 C   0  0
    3.1470    3.0290    3.2400 H   0  0
    4.8870    1.5800   -0.0650 H   0  0
    4.5370    3.1270   -0.8110 H   0  0
    2.1330    2.7480   -0.6470 H   0  0
    2.8610    1.3790   -1.4360 H   0  0
    0.3710    2.0700    2.9790 H   0  0
    1.5860    1.3320    3.9960 H   0  0
    0.2340    1.6900    0.3530 H   0  0
    3.9900   -0.1800    0.8870 H   0  0
    2.8630   -0.9040   -0.2560 H   0  0
    2.5390   -0.9860    1.4730 H   0  0
    1.2950   -0.8180    2.8770 H   0  0
   -0.2300   -0.2850    3.5120 H   0  0
    0.7700    0.8730   -1.8810 H   0  0
   -0.0100   -1.2640    1.0760 H   0  0
   -1.4020    1.5720   -1.4590 H   0  0
   -1.6070    0.0820   -2.3050 H   0  0
   -1.5310    1.2970    1.4360 H   0  0
    0.0080   -1.0370   -3.5370 H   0  0
    1.3790   -1.5820    0.5120 H   0  0
   -2.5410   -1.4220    2.1820 H   0  0
   -2.5370    0.0330    3.1430 H   0  0
    0.6640   -3.3500   -4.0800 H   0  0
    2.0410   -3.8980   -0.0140 H   0  0
   -1.4080   -2.0920   -0.1760 H   0  0
   -2.6130   -1.7660   -1.4180 H   0  0
   -3.1050   -1.9300    0.2660 H   0  0
   -4.4570    0.8090    2.0550 H   0  0
   -4.5760   -0.7750    1.3750 H   0  0
   -4.1640    0.5720   -1.7790 H   0  0
    2.4860   -5.4550   -0.3750 H   0  0
    3.3560   -6.2580   -1.6800 H   0  0
    1.7560   -6.8220   -1.2110 H   0  0
    1.1070   -4.8750   -4.3650 H   0  0
    2.5180   -6.0040   -4.1130 H   0  0
    0.8790   -6.4780   -3.6740 H   0  0
   -2.4770    5.1530   -0.5820 H   0  0
   -2.6150    6.3260    1.6130 H   0  0
   -3.5390    4.9240    2.3500 H   0  0
   -4.4410    6.6170   -0.1040 H   0  0
   -5.3570    5.2050    0.6250 H   0  0
  1  2  2  0
  2  3  1  0
  2  4  1  0
  3  5  2  0
  4  6  1  0
  5  7  1  0
  5  8  1  0
  7  9  1  0
  7 10  1  0
  8 11  1  0
  9 12  1  0
  9 13  1  0
 12 14  1  0
 12 15  1  0
 13 16  1  0
 14 17  2  0
 14 18  1  0
 15 19  1  0
 16 20  1  0
 17 21  1  0
 18 22  2  0
 19 23  1  0
 19 24  1  0
 20 25  1  0
 21 26  2  0
 23 27  1  0
 23 28  1  0
 26 29  1  0
 28 30  3  0
 29 31  1  0
 29 32  1  0
 30 33  1  0
 33 34  1  0
 33 35  1  0
  6  7  1  0
 13 11  1  0
 16 19  1  0
 22 26  1  0
 23 25  1  0
 34 35  1  0
  3 36  1  0
  4 37  1  0
  4 38  1  0
  6 39  1  0
  6 40  1  0
  8 41  1  0
  8 42  1  0
  9 43  1  0
 10 44  1  0
 10 45  1  0
 10 46  1  0
 11 47  1  0
 11 48  1  0
 12 49  1  0
 13 50  1  0
 15 51  1  0
 15 52  1  0
 16 53  1  0
 17 54  1  0
 18 55  1  0
 20 56  1  0
 20 57  1  0
 21 58  1  0
 22 59  1  0
 24 60  1  0
 24 61  1  0
 24 62  1  0
 25 63  1  0
 25 64  1  0
 27 65  1  0
 31 66  1  0
 31 67  1  0
 31 68  1  0
 32 69  1  0
 32 70  1  0
 32 71  1  0
 33 72  1  0
 34 73  1  0
 34 74  1  0
 35 75  1  0
 35 76  1  0
M  END
> <Name>
CHEMBL4527872

> <IC50 nM>
28.5

> <Molecule_ChEMBL_ID>
CHEMBL4527872

> <Smiles>
CN(C)c1ccc([C@H]2C[C@@]3(C)[C@@H](CC[C@@]3(O)C#CC3CC3)[C@@H]3CCC4=CC(=O)CC[C@]4(C)[C@H]32)cc1

$$$$
CHEMBL195972
  SciTegic08162514323D

 57 62  0  0  1  0            999 V2000
    3.8590   -3.0290    0.1490 S   0  0
    3.8090   -3.8950    1.6190 C   0  0
    2.1370   -2.8970    0.3890 C   0  0
    2.5760   -4.0650    2.2360 C   0  0
    4.9670   -4.4420    2.2290 C   0  0
    1.5410   -3.4810    1.5290 C   0  0
    1.3530   -2.1450   -0.6680 C   0  0  2  0  0  0
    2.4300   -4.7660    3.4570 C   0  0
    4.8530   -5.1530    3.4510 C   0  0
    1.9980   -2.2810   -1.9160 O   0  0
    1.2660   -0.6490   -0.3360 C   0  0  2  0  0  0
    3.5860   -5.3130    4.0650 C   0  0
    0.0290    0.0230   -0.9920 C   0  0  2  0  0  0
    2.5860    0.0550   -0.6760 C   0  0
    0.0640    1.5550   -0.8220 C   0  0
   -1.2620   -0.6660   -0.4220 C   0  0
    0.0680   -0.2030   -2.5120 C   0  0
    2.5470    1.5160   -0.2260 C   0  0
   -1.0650    2.2750   -0.6410 C   0  0
    1.4000    2.2730   -0.9000 C   0  0
   -2.5100    0.2010   -0.4840 C   0  0
   -2.3560    1.5740   -0.5600 C   0  0
   -3.8240   -0.2580   -0.4450 C   0  0
   -3.6450    2.0040   -0.5410 N   0  0
   -4.4830    0.9340   -0.4800 N   0  0
   -4.0490    3.2990   -0.5760 C   0  0
   -3.4690    4.1950   -1.4960 C   0  0
   -5.0510    3.7520    0.3030 C   0  0
   -3.8890    5.5350   -1.5330 C   0  0
   -5.4690    5.0920    0.2640 C   0  0
   -4.8890    5.9840   -0.6520 C   0  0
   -5.2850    7.2560   -0.6890 F   0  0
    5.9320   -4.3190    1.7620 H   0  0
    0.4900   -3.4690    1.7910 H   0  0
    0.3550   -2.5720   -0.7540 H   0  0
    1.4610   -4.8870    3.9220 H   0  0
    5.7340   -5.5710    3.9140 H   0  0
    1.9530   -3.2190   -2.1580 H   0  0
    1.1480   -0.5760    0.7460 H   0  0
    3.5000   -5.8540    4.9960 H   0  0
    2.7790    0.0000   -1.7500 H   0  0
    3.4180   -0.4510   -0.1850 H   0  0
   -1.4470   -1.6150   -0.9280 H   0  0
   -1.1170   -0.9100    0.6310 H   0  0
   -0.7210    0.3610   -3.0060 H   0  0
    1.0330    0.1010   -2.9200 H   0  0
   -0.0760   -1.2580   -2.7480 H   0  0
    2.4300    1.5590    0.8560 H   0  0
    3.4960    2.0040   -0.4550 H   0  0
   -1.0260    3.3530   -0.5640 H   0  0
    1.6430    2.4240   -1.9530 H   0  0
    1.3240    3.2680   -0.4590 H   0  0
   -4.2480   -1.2520   -0.3980 H   0  0
   -2.6970    3.8690   -2.1800 H   0  0
   -5.5100    3.0800    1.0160 H   0  0
   -3.4400    6.2190   -2.2380 H   0  0
   -6.2380    5.4340    0.9410 H   0  0
  1  2  1  0
  1  3  1  0
  2  4  1  0
  2  5  2  0
  3  6  2  0
  3  7  1  0
  4  8  2  0
  5  9  1  0
  7 10  1  0
  7 11  1  0
  8 12  1  0
 11 13  1  0
 11 14  1  0
 13 15  1  0
 13 16  1  0
 13 17  1  0
 14 18  1  0
 15 19  2  0
 15 20  1  0
 16 21  1  0
 19 22  1  0
 21 23  1  0
 22 24  1  0
 23 25  2  0
 24 26  1  0
 26 27  2  0
 26 28  1  0
 27 29  1  0
 28 30  2  0
 29 31  2  0
 31 32  1  0
  4  6  1  0
  9 12  2  0
 18 20  1  0
 21 22  2  0
 24 25  1  0
 30 31  1  0
  5 33  1  0
  6 34  1  0
  7 35  1  0
  8 36  1  0
  9 37  1  0
 10 38  1  0
 11 39  1  0
 12 40  1  0
 14 41  1  0
 14 42  1  0
 16 43  1  0
 16 44  1  0
 17 45  1  0
 17 46  1  0
 17 47  1  0
 18 48  1  0
 18 49  1  0
 19 50  1  0
 20 51  1  0
 20 52  1  0
 23 53  1  0
 27 54  1  0
 28 55  1  0
 29 56  1  0
 30 57  1  0
M  END
> <Name>
CHEMBL195972

> <IC50 nM>
29.1

> <Molecule_ChEMBL_ID>
CHEMBL195972

> <Smiles>
C[C@]12Cc3cnn(-c4ccc(F)cc4)c3C=C1CCC[C@@H]2[C@@H](O)c1cc2ccccc2s1

$$$$
CHEMBL5435559
  SciTegic08162514323D

 83 89  0  0  1  0            999 V2000
   -7.4030   -0.0060    0.0900 O   0  0
   -6.4340    0.2110    0.7830 C   0  0
   -5.6350   -0.8920    1.3220 C   0  0
   -6.0310    1.5860    1.1000 C   0  0
   -4.5700   -0.6660    2.1210 C   0  0
   -4.9790    1.8360    1.9020 C   0  0
   -4.1310    0.7380    2.5350 C   0  0  2  0  0  0
   -3.7420   -1.8180    2.6470 C   0  0
   -2.6210    0.9100    2.1660 C   0  0  1  0  0  0
   -4.3610    0.8280    4.0510 C   0  0
   -2.2540   -1.6150    2.3400 C   0  0
   -2.0180    2.3260    2.4220 C   0  0  1  0  0  0
   -1.7520   -0.2240    2.7730 C   0  0  1  0  0  0
   -2.2230    2.7350    3.7620 O   0  0
   -0.5100    2.4200    2.0920 C   0  0
   -0.3050   -0.0450    2.2850 C   0  0  1  0  0  0
    0.3090    1.2870    2.7420 C   0  0  1  0  0  0
    0.7270   -1.0600    2.7750 C   0  0
    1.7850    1.1250    2.3050 C   0  0  1  0  0  0
    0.2930    1.3850    4.2770 C   0  0
    2.0620   -0.3890    2.4320 C   0  0  2  0  0  0
    1.9490    1.3320    0.9120 O   0  0
    2.7850    2.0020    3.0290 C   0  0
    2.4690   -0.7670    1.1270 O   0  0
    2.8360    0.3730    0.3910 C   0  0  1  0  0  0
    3.5840    1.5290    3.8010 O   0  0
    2.7520    3.4830    2.7580 C   0  0
    2.6270    0.1720   -1.0660 C   0  0
    2.1890    4.1510    3.8650 O   0  0
    3.6870    0.3810   -1.9670 C   0  0
    1.3670   -0.2260   -1.5490 C   0  0
    3.4900    0.1920   -3.3460 C   0  0
    1.1700   -0.4160   -2.9280 C   0  0
    2.2300   -0.2070   -3.8280 C   0  0
    2.0210   -0.4080   -5.2850 C   0  0
    2.1680   -1.8080   -5.6620 N   0  0
    3.5550   -2.2870   -5.5100 C   0  0
    1.6090   -2.1090   -6.9840 C   0  0
    3.7790   -3.6950   -6.1210 C   0  0
    1.6860   -3.6250   -7.3220 C   0  0
    2.5100   -4.3810   -6.3710 N   0  0
   -5.9080   -1.9060    1.0680 H   0  0
   -6.5880    2.4120    0.6840 H   0  0
   -4.7360    2.8690    2.1020 H   0  0
   -3.8890   -1.8980    3.7250 H   0  0
   -4.0780   -2.7660    2.2210 H   0  0
   -2.5630    0.7810    1.0820 H   0  0
   -5.3260    0.4100    4.3400 H   0  0
   -4.3340    1.8650    4.3850 H   0  0
   -3.5880    0.2830    4.5920 H   0  0
   -1.6800   -2.3980    2.8360 H   0  0
   -2.0920   -1.7460    1.2680 H   0  0
   -2.5350    3.0590    1.8050 H   0  0
   -1.7870   -0.1680    3.8630 H   0  0
   -2.0430    3.6860    3.8030 H   0  0
   -0.4060    2.3690    1.0080 H   0  0
   -0.1070    3.3930    2.3810 H   0  0
   -0.3160   -0.0780    1.2010 H   0  0
    0.6410   -1.2050    3.8440 H   0  0
    0.6050   -2.0310    2.3130 H   0  0
   -0.7010    1.1620    4.6660 H   0  0
    1.0100    0.6900    4.7150 H   0  0
    0.5600    2.3890    4.6040 H   0  0
    2.8460   -0.6310    3.1370 H   0  0
    3.8550    0.6510    0.6230 H   0  0
    2.1310    3.6860    1.8870 H   0  0
    3.7660    3.8560    2.6170 H   0  0
    2.1740    5.0960    3.6500 H   0  0
    4.6580    0.6880   -1.6040 H   0  0
    0.5490   -0.3870   -0.8650 H   0  0
    4.3090    0.3540   -4.0310 H   0  0
    0.1990   -0.7210   -3.2930 H   0  0
    2.7380    0.1950   -5.8420 H   0  0
    1.0250   -0.0600   -5.5610 H   0  0
    3.8010   -2.3080   -4.4410 H   0  0
    4.2540   -1.5760   -5.9730 H   0  0
    0.5640   -1.7750   -7.0180 H   0  0
    2.1350   -1.5230   -7.7480 H   0  0
    4.3910   -4.3090   -5.4470 H   0  0
    4.3400   -3.6190   -7.0610 H   0  0
    2.0900   -3.7500   -8.3340 H   0  0
    0.6820   -4.0660   -7.3280 H   0  0
    2.6870   -5.3300   -6.7360 H   0  0
  1  2  2  0
  2  3  1  0
  2  4  1  0
  3  5  2  0
  4  6  2  0
  5  7  1  0
  5  8  1  0
  7  9  1  0
  7 10  1  0
  8 11  1  0
  9 12  1  0
  9 13  1  0
 12 14  1  0
 12 15  1  0
 13 16  1  0
 15 17  1  0
 16 18  1  0
 17 19  1  0
 17 20  1  0
 18 21  1  0
 19 22  1  0
 19 23  1  0
 21 24  1  0
 22 25  1  0
 23 26  2  0
 23 27  1  0
 25 28  1  0
 27 29  1  0
 28 30  2  0
 28 31  1  0
 30 32  1  0
 31 33  2  0
 32 34  2  0
 34 35  1  0
 35 36  1  0
 36 37  1  0
 36 38  1  0
 37 39  1  0
 38 40  1  0
 39 41  1  0
  6  7  1  0
 13 11  1  0
 16 17  1  0
 19 21  1  0
 24 25  1  0
 33 34  1  0
 40 41  1  0
  3 42  1  0
  4 43  1  0
  6 44  1  0
  8 45  1  0
  8 46  1  0
  9 47  1  0
 10 48  1  0
 10 49  1  0
 10 50  1  0
 11 51  1  0
 11 52  1  0
 12 53  1  0
 13 54  1  0
 14 55  1  0
 15 56  1  0
 15 57  1  0
 16 58  1  0
 18 59  1  0
 18 60  1  0
 20 61  1  0
 20 62  1  0
 20 63  1  0
 21 64  1  0
 25 65  1  0
 27 66  1  0
 27 67  1  0
 29 68  1  0
 30 69  1  0
 31 70  1  0
 32 71  1  0
 33 72  1  0
 35 73  1  0
 35 74  1  0
 37 75  1  0
 37 76  1  0
 38 77  1  0
 38 78  1  0
 39 79  1  0
 39 80  1  0
 40 81  1  0
 40 82  1  0
 41 83  1  0
M  END
> <Name>
CHEMBL5435559

> <IC50 nM>
53

> <Molecule_ChEMBL_ID>
CHEMBL5435559

> <Smiles>
C[C@]12C=CC(=O)C=C1CC[C@@H]1[C@@H]2[C@@H](O)C[C@@]2(C)[C@H]1C[C@H]1O[C@@H](c3ccc(CN4CCNCC4)cc3)O[C@]12C(=O)CO

$$$$
CHEMBL4594374
  SciTegic08162514323D

 72 77  0  0  1  0            999 V2000
   -6.9710   -0.4610   -1.2770 O   0  0
   -6.0000   -0.2420   -0.5880 C   0  0
   -5.1990   -1.3480   -0.0510 C   0  0
   -5.5960    1.1310   -0.2710 C   0  0
   -4.1330   -1.1210    0.7440 C   0  0
   -4.5410    1.3810    0.5270 C   0  0
   -3.6910    0.2830    1.1600 C   0  0  2  0  0  0
   -3.3030   -2.2740    1.2680 C   0  0
   -2.1820    0.4550    0.7890 C   0  0  1  0  0  0
   -3.9220    0.3710    2.6740 C   0  0
   -1.8160   -2.0700    0.9590 C   0  0
   -1.5780    1.8710    1.0450 C   0  0  1  0  0  0
   -1.3130   -0.6800    1.3970 C   0  0  1  0  0  0
   -1.7870    2.2810    2.3830 O   0  0
   -0.0680    1.9650    0.7190 C   0  0
    0.1350   -0.4980    0.9100 C   0  0  1  0  0  0
    0.7480    0.8340    1.3710 C   0  0  1  0  0  0
    1.1660   -1.5160    1.4040 C   0  0
    2.2270    0.6720    0.9380 C   0  0  1  0  0  0
    0.7270    0.9300    2.9060 C   0  0
    2.5020   -0.8400    1.0630 C   0  0  2  0  0  0
    2.3910    0.8790   -0.4550 O   0  0
    3.2230    1.5490    1.6620 C   0  0
    2.9120   -1.2190   -0.2400 O   0  0
    3.2790   -0.0800   -0.9790 C   0  0  1  0  0  0
    4.1070    1.0660    2.3300 O   0  0
    3.0800    3.0410    1.5270 C   0  0
    3.0270   -0.2970   -2.4670 C   0  0
    4.3590    3.6330    1.4900 O   0  0
    4.0100   -1.3520   -3.0020 C   0  0
    1.5680   -0.7310   -2.6800 C   0  0
    3.7340   -1.6800   -4.4770 C   0  0
    1.2910   -1.0590   -4.1540 C   0  0
    2.2730   -2.1080   -4.6950 C   0  0
   -5.4730   -2.3610   -0.3050 H   0  0
   -6.1520    1.9570   -0.6880 H   0  0
   -4.2950    2.4140    0.7250 H   0  0
   -3.4470   -2.3540    2.3460 H   0  0
   -3.6390   -3.2210    0.8420 H   0  0
   -2.1230    0.3260   -0.2950 H   0  0
   -4.8870   -0.0430    2.9630 H   0  0
   -3.8930    1.4080    3.0100 H   0  0
   -3.1480   -0.1760    3.2150 H   0  0
   -1.2400   -2.8540    1.4510 H   0  0
   -1.6540   -2.1990   -0.1130 H   0  0
   -2.0940    2.6040    0.4240 H   0  0
   -1.3520   -0.6250    2.4840 H   0  0
   -1.5640    3.2250    2.4320 H   0  0
    0.0350    1.9140   -0.3650 H   0  0
    0.3320    2.9370    1.0040 H   0  0
    0.1270   -0.5330   -0.1720 H   0  0
    1.0780   -1.6580    2.4710 H   0  0
    1.0470   -2.4840    0.9410 H   0  0
   -0.2710    0.7230    3.2910 H   0  0
    1.4320    0.2250    3.3460 H   0  0
    1.0100    1.9300    3.2320 H   0  0
    3.2850   -1.0840    1.7680 H   0  0
    4.2970    0.1970   -0.7460 H   0  0
    2.5470    3.4410    2.3910 H   0  0
    2.5680    3.2830    0.5980 H   0  0
    3.1970    0.6410   -2.9940 H   0  0
    4.2290    4.5920    1.4040 H   0  0
    3.9260   -2.2660   -2.4120 H   0  0
    5.0370   -1.0020   -2.8890 H   0  0
    0.8890    0.0530   -2.3420 H   0  0
    1.3540   -1.6110   -2.0740 H   0  0
    4.4060   -2.4670   -4.8150 H   0  0
    3.9510   -0.8030   -5.0880 H   0  0
    1.3710   -0.1470   -4.7480 H   0  0
    0.2660   -1.4120   -4.2720 H   0  0
    2.0920   -2.2770   -5.7560 H   0  0
    2.0980   -3.0590   -4.1930 H   0  0
  1  2  2  0
  2  3  1  0
  2  4  1  0
  3  5  2  0
  4  6  2  0
  5  7  1  0
  5  8  1  0
  7  9  1  0
  7 10  1  0
  8 11  1  0
  9 12  1  0
  9 13  1  0
 12 14  1  0
 12 15  1  0
 13 16  1  0
 15 17  1  0
 16 18  1  0
 17 19  1  0
 17 20  1  0
 18 21  1  0
 19 22  1  0
 19 23  1  0
 21 24  1  0
 22 25  1  0
 23 26  2  0
 23 27  1  0
 25 28  1  0
 27 29  1  0
 28 30  1  0
 28 31  1  0
 30 32  1  0
 31 33  1  0
 32 34  1  0
  6  7  1  0
 13 11  1  0
 16 17  1  0
 19 21  1  0
 24 25  1  0
 33 34  1  0
  3 35  1  0
  4 36  1  0
  6 37  1  0
  8 38  1  0
  8 39  1  0
  9 40  1  0
 10 41  1  0
 10 42  1  0
 10 43  1  0
 11 44  1  0
 11 45  1  0
 12 46  1  0
 13 47  1  0
 14 48  1  0
 15 49  1  0
 15 50  1  0
 16 51  1  0
 18 52  1  0
 18 53  1  0
 20 54  1  0
 20 55  1  0
 20 56  1  0
 21 57  1  0
 25 58  1  0
 27 59  1  0
 27 60  1  0
 28 61  1  0
 29 62  1  0
 30 63  1  0
 30 64  1  0
 31 65  1  0
 31 66  1  0
 32 67  1  0
 32 68  1  0
 33 69  1  0
 33 70  1  0
 34 71  1  0
 34 72  1  0
M  END
> <Name>
CHEMBL4594374

> <IC50 nM>
2

> <Molecule_ChEMBL_ID>
CHEMBL4594374

> <Smiles>
C[C@]12C=CC(=O)C=C1CC[C@@H]1[C@@H]2[C@@H](O)C[C@@]2(C)[C@H]1C[C@H]1O[C@@H](C3CCCCC3)O[C@]12C(=O)CO

$$$$
CHEMBL2181929
  SciTegic08162514323D

 42 44  0  0  0  0            999 V2000
    4.3090    2.2750   -0.1330 S   0  0
    4.6170    1.4240    1.0020 O   0  0
    4.4470    1.6000   -1.4100 O   0  0
    2.7600    2.7320    0.0100 N   0  0
    5.3980    3.6910   -0.1070 C   0  0
    1.7870    1.8110    0.0140 C   0  0
    0.4320    2.2010    0.1390 C   0  0
    2.1000    0.4380   -0.1050 C   0  0
   -0.6020    1.2340    0.1410 C   0  0
    1.0740   -0.5350   -0.0920 C   0  0
   -1.8730    1.6700    0.2440 O   0  0
   -0.3010   -0.1600    0.0490 C   0  0
   -2.9750    0.8440   -0.1620 C   0  0
   -1.3560   -1.0430    0.1060 N   0  0
   -2.6760   -0.6330    0.0310 C   0  0
   -4.1900    1.2700    0.6660 C   0  0
   -3.2380    1.1090   -1.6460 C   0  0
   -1.0200   -2.3750    0.2620 C   0  0
   -3.5860   -1.4280    0.1130 O   0  0
   -0.1450   -2.7660    1.2930 C   0  0
   -1.5510   -3.3460   -0.6090 C   0  0
    0.1970   -4.1210    1.4510 C   0  0
   -1.2070   -4.6990   -0.4510 C   0  0
   -0.3340   -5.0880    0.5800 C   0  0
   -0.0100   -6.3690    0.7310 F   0  0
    2.5310    3.7030    0.0940 H   0  0
    6.4570    3.4450   -0.1990 H   0  0
    5.2660    4.2360    0.8280 H   0  0
    5.1410    4.3630   -0.9260 H   0  0
    0.1680    3.2440    0.2320 H   0  0
    3.1250    0.1110   -0.2110 H   0  0
    1.3770   -1.5680   -0.1870 H   0  0
   -4.0370    1.0960    1.7320 H   0  0
   -5.0760    0.7150    0.3630 H   0  0
   -4.3970    2.3300    0.5290 H   0  0
   -2.3690    0.8400   -2.2460 H   0  0
   -4.1000    0.5390   -1.9920 H   0  0
   -3.4470    2.1660   -1.8180 H   0  0
    0.2750   -2.0370    1.9730 H   0  0
   -2.2250   -3.0660   -1.4080 H   0  0
    0.8690   -4.4140    2.2440 H   0  0
   -1.6170   -5.4400   -1.1230 H   0  0
  1  2  2  0
  1  3  2  0
  1  4  1  0
  1  5  1  0
  4  6  1  0
  6  7  2  0
  6  8  1  0
  7  9  1  0
  8 10  2  0
  9 11  1  0
  9 12  2  0
 11 13  1  0
 12 14  1  0
 13 15  1  0
 13 16  1  0
 13 17  1  0
 14 18  1  0
 15 19  2  0
 18 20  2  0
 18 21  1  0
 20 22  1  0
 21 23  2  0
 22 24  2  0
 24 25  1  0
 10 12  1  0
 14 15  1  0
 23 24  1  0
  4 26  1  0
  5 27  1  0
  5 28  1  0
  5 29  1  0
  7 30  1  0
  8 31  1  0
 10 32  1  0
 16 33  1  0
 16 34  1  0
 16 35  1  0
 17 36  1  0
 17 37  1  0
 17 38  1  0
 20 39  1  0
 21 40  1  0
 22 41  1  0
 23 42  1  0
M  END
> <Name>
CHEMBL2181929

> <IC50 nM>
100000

> <Molecule_ChEMBL_ID>
CHEMBL2181929

> <Smiles>
CC1(C)Oc2cc(NS(C)(=O)=O)ccc2N(c2ccc(F)cc2)C1=O

$$$$
CHEMBL2181928
  SciTegic08162514323D

 43 46  0  0  1  0            999 V2000
   -6.1250   -1.7730    0.6580 O   0  0
   -5.2520   -0.9410    0.5700 C   0  0
   -3.9340   -1.3010    0.7290 N   0  0
   -5.5960    0.5080    0.2770 C   0  0
   -2.9380   -0.3870    0.6740 C   0  0
   -4.5350    1.4240    0.5880 O   0  0
   -1.6190   -0.8070    0.6910 N   0  0
   -3.2540    1.0040    0.6090 C   0  0
   -0.5900    0.1130    0.6560 C   0  0
   -2.2010    1.9510    0.5800 C   0  0
    0.6740   -0.3300    0.6740 N   0  0
   -0.8560    1.5060    0.6020 C   0  0
    1.8200    0.5610    0.3340 C   0  0  2  0  0  0
    0.9940   -1.7270    1.0570 C   0  0
    1.7620    1.0390   -1.0780 C   0  0
    3.1740   -0.1480    0.6110 C   0  0
    2.1950   -1.8160    2.0390 C   0  0  2  0  0  0
    1.6190    0.1170   -2.1310 C   0  0
    1.8480    2.4160   -1.3570 C   0  0
    3.1390   -0.7540    1.8970 O   0  0
    2.9570   -3.1370    1.8890 C   0  0
    1.5620    0.5700   -3.4590 C   0  0
    1.7910    2.8670   -2.6880 C   0  0
    1.6480    1.9450   -3.7380 C   0  0
   -3.7210   -2.2680    0.8930 H   0  0
   -6.4870    0.8110    0.8260 H   0  0
   -5.8190    0.6060   -0.7870 H   0  0
   -2.4220    3.0100    0.5410 H   0  0
   -0.0550    2.2310    0.5760 H   0  0
    1.7580    1.4400    0.9790 H   0  0
    0.1250   -2.2300    1.4860 H   0  0
    1.2320   -2.2640    0.1350 H   0  0
    3.4020   -0.9180   -0.1290 H   0  0
    3.9940    0.5680    0.6020 H   0  0
    1.8320   -1.7460    3.0640 H   0  0
    1.5510   -0.9410   -1.9220 H   0  0
    1.9570    3.1290   -0.5550 H   0  0
    3.7910   -3.1840    2.5900 H   0  0
    2.2970   -3.9860    2.0660 H   0  0
    3.3630   -3.2360    0.8810 H   0  0
    1.4530   -0.1390   -4.2680 H   0  0
    1.8590    3.9240   -2.9020 H   0  0
    1.6050    2.2930   -4.7600 H   0  0
  1  2  2  0
  2  3  1  0
  2  4  1  0
  3  5  1  0
  4  6  1  0
  5  7  2  0
  5  8  1  0
  7  9  1  0
  8 10  2  0
  9 11  1  0
  9 12  2  0
 11 13  1  0
 11 14  1  0
 13 15  1  0
 13 16  1  0
 14 17  1  0
 15 18  2  0
 15 19  1  0
 16 20  1  0
 17 21  1  0
 18 22  1  0
 19 23  2  0
 22 24  2  0
  6  8  1  0
 10 12  1  0
 17 20  1  0
 23 24  1  0
  3 25  1  0
  4 26  1  0
  4 27  1  0
 10 28  1  0
 12 29  1  0
 13 30  1  0
 14 31  1  0
 14 32  1  0
 16 33  1  0
 16 34  1  0
 17 35  1  0
 18 36  1  0
 19 37  1  0
 21 38  1  0
 21 39  1  0
 21 40  1  0
 22 41  1  0
 23 42  1  0
 24 43  1  0
M  END
> <Name>
CHEMBL2181928

> <IC50 nM>
10000

> <Molecule_ChEMBL_ID>
CHEMBL2181928

> <Smiles>
C[C@@H]1CN(c2ccc3c(n2)NC(=O)CO3)[C@H](c2ccccc2)CO1

$$$$
CHEMBL3959591
  SciTegic08162514323D

 53 56  0  0  1  0            999 V2000
   -5.4610   -2.4040    0.8610 S   0  0
   -5.9530   -3.1030   -0.3130 O   0  0
   -4.8940   -3.2930    1.8610 O   0  0
   -4.1460   -1.4060    0.3090 N   0  0
   -6.8090   -1.4880    1.5980 C   0  0
   -2.9510   -2.0660   -0.1880 C   0  0  2  0  0  0
   -7.7890   -2.3610    1.9980 F   0  0
   -7.3260   -0.6150    0.6780 F   0  0
   -6.3480   -0.7890    2.6840 F   0  0
   -1.7870   -1.0800   -0.2640 C   0  0  2  0  0  0
   -3.2340   -2.7500   -1.5270 C   0  0
   -0.6350   -1.7440   -0.7620 O   0  0
   -1.4820   -0.4880    1.0640 C   0  0
    0.5020   -1.0410   -0.8630 C   0  0
   -1.8920    0.8240    1.3610 C   0  0
   -0.7850   -1.2400    2.0270 C   0  0
    1.7520   -1.7170   -0.8930 C   0  0
    0.4530    0.3770   -0.9410 C   0  0
   -1.6030    1.3830    2.6190 C   0  0
   -0.4980   -0.6820    3.2850 C   0  0
    2.9470   -0.9630   -1.0000 C   0  0
    1.6510    1.1270   -1.0490 C   0  0
   -0.9080    0.6310    3.5800 C   0  0
    2.8730    0.4160   -1.0740 C   0  0
    4.2010   -1.5510   -1.0370 C   0  0
    4.1800    0.7720   -1.1640 N   0  0
    4.9300   -0.3850   -1.1410 N   0  0
    4.6780    2.0310   -1.2620 C   0  0
    5.7250    2.3110   -2.1620 C   0  0
    4.1490    3.0650   -0.4630 C   0  0
    6.2400    3.6130   -2.2620 C   0  0
    4.6640    4.3670   -0.5640 C   0  0
    5.7110    4.6430   -1.4650 C   0  0
    6.1970    5.8770   -1.5590 F   0  0
   -4.4860   -0.7640   -0.4200 H   0  0
   -2.7030   -2.9060    0.4610 H   0  0
   -2.0510   -0.2850   -0.9630 H   0  0
   -3.9450   -3.5640   -1.4000 H   0  0
   -3.6370   -2.0350   -2.2460 H   0  0
   -2.3200   -3.1680   -1.9470 H   0  0
   -2.4280    1.4080    0.6270 H   0  0
   -0.4670   -2.2480    1.8070 H   0  0
    1.7770   -2.7970   -0.8340 H   0  0
   -0.4980    0.8870   -0.9180 H   0  0
   -1.9180    2.3910    2.8480 H   0  0
    0.0370   -1.2600    4.0230 H   0  0
    1.6270    2.2050   -1.1070 H   0  0
   -0.6850    1.0610    4.5470 H   0  0
    4.5530   -2.5740   -0.9980 H   0  0
    6.1470    1.5310   -2.7830 H   0  0
    3.3460    2.8710    0.2320 H   0  0
    7.0430    3.8220   -2.9530 H   0  0
    4.2560    5.1540    0.0510 H   0  0
  1  2  2  0
  1  3  2  0
  1  4  1  0
  1  5  1  0
  4  6  1  0
  5  7  1  0
  5  8  1  0
  5  9  1  0
  6 10  1  0
  6 11  1  0
 10 12  1  0
 10 13  1  0
 12 14  1  0
 13 15  2  0
 13 16  1  0
 14 17  2  0
 14 18  1  0
 15 19  1  0
 16 20  2  0
 17 21  1  0
 18 22  2  0
 19 23  2  0
 21 24  2  0
 21 25  1  0
 24 26  1  0
 25 27  2  0
 26 28  1  0
 28 29  2  0
 28 30  1  0
 29 31  1  0
 30 32  2  0
 31 33  2  0
 33 34  1  0
 20 23  1  0
 22 24  1  0
 26 27  1  0
 32 33  1  0
  4 35  1  0
  6 36  1  0
 10 37  1  0
 11 38  1  0
 11 39  1  0
 11 40  1  0
 15 41  1  0
 16 42  1  0
 17 43  1  0
 18 44  1  0
 19 45  1  0
 20 46  1  0
 22 47  1  0
 23 48  1  0
 25 49  1  0
 29 50  1  0
 30 51  1  0
 31 52  1  0
 32 53  1  0
M  END
> <Name>
CHEMBL3959591

> <IC50 nM>
37

> <Molecule_ChEMBL_ID>
CHEMBL3959591

> <Smiles>
C[C@H](NS(=O)(=O)C(F)(F)F)[C@H](Oc1ccc2c(cnn2-c2ccc(F)cc2)c1)c1ccccc1

$$$$
CHEMBL3933196
  SciTegic08162514323D

 59 62  0  0  1  0            999 V2000
   -5.0040   -1.6020    0.1870 S   0  0
   -5.9830   -0.7420    0.8300 O   0  0
   -5.3580   -1.9510   -1.1780 O   0  0
   -3.5410   -0.6680    0.0800 N   0  0
   -4.8420   -3.1060    1.1430 C   0  0
   -2.3340   -1.3400   -0.3710 C   0  0  2  0  0  0
   -6.1740   -3.8560    1.1910 C   0  0
   -1.1640   -0.3560   -0.4300 C   0  0  2  0  0  0
   -2.5800   -2.0430   -1.7050 C   0  0
   -6.0900   -5.1530    1.9980 C   0  0
   -0.0160   -1.0180   -0.9360 O   0  0
   -0.8580    0.2110    0.9100 C   0  0
    1.1210   -0.3170   -1.0390 C   0  0
   -1.1920    1.5450    1.2030 C   0  0
   -0.2340   -0.5880    1.8870 C   0  0
    2.3710   -0.9920   -1.0680 C   0  0
    1.0720    1.1030   -1.1150 C   0  0
   -0.9020    2.0800    2.4710 C   0  0
    0.0550   -0.0510    3.1540 C   0  0
    3.5680   -0.2360   -1.1760 C   0  0
    2.2710    1.8510   -1.2230 C   0  0
   -0.2790    1.2830    3.4450 C   0  0
    3.4940    1.1420   -1.2500 C   0  0
    4.8200   -0.8240   -1.2110 C   0  0
    4.8010    1.4960   -1.3400 N   0  0
    5.5510    0.3420   -1.3160 N   0  0
    5.2990    2.7580   -1.4380 C   0  0
    6.3540    3.0330   -2.3280 C   0  0
    4.7600    3.7930   -0.6490 C   0  0
    6.8670    4.3380   -2.4280 C   0  0
    5.2750    5.0960   -0.7500 C   0  0
    6.3300    5.3690   -1.6390 C   0  0
    6.8180    6.6030   -1.7340 F   0  0
   -3.3460   -0.2330    0.9940 H   0  0
   -4.0630   -3.7310    0.7050 H   0  0
   -4.4980   -2.8620    2.1480 H   0  0
   -2.1860   -2.0670    0.4280 H   0  0
   -6.9630   -3.2110    1.5780 H   0  0
   -6.5430   -4.0510    0.1850 H   0  0
   -1.4240    0.4510   -1.1130 H   0  0
   -3.2640   -2.8850   -1.6000 H   0  0
   -1.6470   -2.4220   -2.1190 H   0  0
   -3.0120   -1.3540   -2.4320 H   0  0
   -7.0570   -5.6550    2.0190 H   0  0
   -5.3500   -5.8260    1.5680 H   0  0
   -5.7970   -4.9470    3.0270 H   0  0
   -1.6700    2.1640    0.4590 H   0  0
    0.0230   -1.6130    1.6700 H   0  0
    2.3960   -2.0700   -1.0080 H   0  0
    0.1210    1.6130   -1.0940 H   0  0
   -1.1580    3.1050    2.6950 H   0  0
    0.5330   -0.6640    3.9040 H   0  0
    2.2460    2.9300   -1.2830 H   0  0
   -0.0590    1.6930    4.4200 H   0  0
    5.1720   -1.8480   -1.1740 H   0  0
    6.7810    2.2520   -2.9420 H   0  0
    3.9490    3.6010    0.0410 H   0  0
    7.6780    4.5430   -3.1110 H   0  0
    4.8590    5.8850   -0.1430 H   0  0
  1  2  2  0
  1  3  2  0
  1  4  1  0
  1  5  1  0
  4  6  1  0
  5  7  1  0
  6  8  1  0
  6  9  1  0
  7 10  1  0
  8 11  1  0
  8 12  1  0
 11 13  1  0
 12 14  2  0
 12 15  1  0
 13 16  2  0
 13 17  1  0
 14 18  1  0
 15 19  2  0
 16 20  1  0
 17 21  2  0
 18 22  2  0
 20 23  2  0
 20 24  1  0
 23 25  1  0
 24 26  2  0
 25 27  1  0
 27 28  2  0
 27 29  1  0
 28 30  1  0
 29 31  2  0
 30 32  2  0
 32 33  1  0
 19 22  1  0
 21 23  1  0
 25 26  1  0
 31 32  1  0
  4 34  1  0
  5 35  1  0
  5 36  1  0
  6 37  1  0
  7 38  1  0
  7 39  1  0
  8 40  1  0
  9 41  1  0
  9 42  1  0
  9 43  1  0
 10 44  1  0
 10 45  1  0
 10 46  1  0
 14 47  1  0
 15 48  1  0
 16 49  1  0
 17 50  1  0
 18 51  1  0
 19 52  1  0
 21 53  1  0
 22 54  1  0
 24 55  1  0
 28 56  1  0
 29 57  1  0
 30 58  1  0
 31 59  1  0
M  END
> <Name>
CHEMBL3933196

> <IC50 nM>
13

> <Molecule_ChEMBL_ID>
CHEMBL3933196

> <Smiles>
CCCS(=O)(=O)N[C@@H](C)[C@H](Oc1ccc2c(cnn2-c2ccc(F)cc2)c1)c1ccccc1

$$$$
CHEMBL1095097
  SciTegic08162514323D

 60 65  0  0  1  0            999 V2000
    6.5350    0.0530   -1.1050 O   0  0
    5.3730   -0.2680   -1.0350 C   0  0
    4.6430   -0.1660    0.2420 C   0  0
    4.6290   -0.7770   -2.2460 C   0  0
    3.3240   -0.4360    0.3610 C   0  0
    3.1490   -0.3850   -2.1780 C   0  0
    2.4750   -0.8200   -0.8480 C   0  0  2  0  0  0
    2.6620   -0.3670    1.7290 C   0  0
    1.0020   -0.3630   -0.6970 C   0  0  2  0  0  0
    2.3220   -2.3460   -0.8360 C   0  0
    1.2560    0.2600    1.7310 C   0  0  2  0  0  0
    0.7750    0.8810   -1.2910 O   0  0
    0.3480   -0.4410    0.6970 C   0  0  1  0  0  0
    0.0660   -0.1270   -1.9470 C   0  0  2  0  0  0
    1.3360    1.7580    1.5470 C   0  0
   -1.1150    0.0510    0.7150 C   0  0  1  0  0  0
   -1.4410    0.1070   -1.7680 C   0  0
    2.1970    2.2560    0.8580 O   0  0
    0.4060    2.4570    2.1900 O   0  0
   -1.9240   -0.5290   -0.4530 C   0  0  2  0  0  0
   -1.9120   -0.3340    1.9650 C   0  0
    0.5390    3.8550    1.9830 C   0  0
   -3.3550   -0.1840    0.0020 C   0  0  2  0  0  0
   -1.7830   -2.0590   -0.5230 C   0  0
   -3.3260   -0.6470    1.4690 C   0  0
   -4.3300   -0.9300   -0.7300 O   0  0
   -3.8070    1.2910   -0.0550 C   0  0
   -5.4610   -0.2360   -0.7190 C   0  0
   -5.3220    1.1170   -0.0900 C   0  0
   -6.5120   -0.6290   -1.1720 O   0  0
    5.2030    0.1310    1.1170 H   0  0
    4.7290   -1.8610   -2.2950 H   0  0
    5.0820   -0.3770   -3.1520 H   0  0
    3.0900    0.6990   -2.2970 H   0  0
    2.6250   -0.8150   -3.0310 H   0  0
    3.2990    0.1660    2.4360 H   0  0
    2.5920   -1.3850    2.1130 H   0  0
    3.2810   -2.8520   -0.9450 H   0  0
    1.6780   -2.6740   -1.6500 H   0  0
    1.8750   -2.6820    0.1000 H   0  0
    0.8280    0.0900    2.7190 H   0  0
    0.3280   -1.5000    0.9650 H   0  0
    0.4670   -0.2070   -2.9570 H   0  0
   -1.1270    1.1310    0.6350 H   0  0
   -1.6560    1.1760   -1.8010 H   0  0
   -1.9820   -0.3300   -2.6050 H   0  0
   -1.9140    0.4770    2.6780 H   0  0
   -1.4920   -1.1970    2.4590 H   0  0
   -0.2970    4.3540    2.4710 H   0  0
    1.5370    4.1540    2.3050 H   0  0
    0.4650    4.0490    0.9120 H   0  0
   -0.8090   -2.3590   -0.9080 H   0  0
   -2.5470   -2.4840   -1.1740 H   0  0
   -1.9020   -2.5020    0.4650 H   0  0
   -4.0840   -0.1780    2.0780 H   0  0
   -3.5020   -1.7130    1.5270 H   0  0
   -3.4690    1.8890    0.7790 H   0  0
   -3.4880    1.7730   -0.9650 H   0  0
   -5.7480    1.1070    0.9020 H   0  0
   -5.8110    1.8810   -0.6760 H   0  0
  1  2  2  0
  2  3  1  0
  2  4  1  0
  3  5  2  0
  4  6  1  0
  5  7  1  0
  5  8  1  0
  7  9  1  0
  7 10  1  0
  8 11  1  0
  9 12  1  0
  9 13  1  0
  9 14  1  0
 11 15  1  0
 13 16  1  0
 14 17  1  0
 15 18  2  0
 15 19  1  0
 16 20  1  0
 16 21  1  0
 19 22  1  0
 20 23  1  0
 20 24  1  0
 21 25  1  0
 23 26  1  0
 23 27  1  0
 26 28  1  0
 27 29  1  0
 28 30  2  0
  6  7  1  0
 11 13  1  0
 14 12  1  0
 17 20  1  0
 23 25  1  0
 28 29  1  0
  3 31  1  0
  4 32  1  0
  4 33  1  0
  6 34  1  0
  6 35  1  0
  8 36  1  0
  8 37  1  0
 10 38  1  0
 10 39  1  0
 10 40  1  0
 11 41  1  0
 13 42  1  0
 14 43  1  0
 16 44  1  0
 17 45  1  0
 17 46  1  0
 21 47  1  0
 21 48  1  0
 22 49  1  0
 22 50  1  0
 22 51  1  0
 24 52  1  0
 24 53  1  0
 24 54  1  0
 25 55  1  0
 25 56  1  0
 27 57  1  0
 27 58  1  0
 29 59  1  0
 29 60  1  0
M  END
> <Name>
CHEMBL1095097

> <IC50 nM>
18000

> <Molecule_ChEMBL_ID>
CHEMBL1095097

> <Smiles>
COC(=O)[C@@H]1CC2=CC(=O)CC[C@]2(C)[C@@]23O[C@@H]2C[C@@]2(C)[C@@H](CC[C@@]24CCC(=O)O4)[C@H]13

$$$$
CHEMBL1215331
  SciTegic08162514323D

 52 56  0  0  1  0            999 V2000
    3.3560   -4.5530   -2.1450 Cl  0  0
    3.3380   -3.3070   -0.9530 C   0  0
    4.4690   -3.0060   -0.1540 C   0  0
    2.1540   -2.5640   -0.7740 C   0  0
    5.7030   -3.7380   -0.3010 C   0  0
    4.4080   -1.9790    0.8070 C   0  0
    2.0920   -1.5370    0.1870 C   0  0
    6.6950   -4.3280   -0.4160 N   0  0
    3.2230   -1.2460    0.9760 C   0  0
    0.9380   -0.8220    0.3570 N   0  0
   -0.1720   -1.3090    0.2010 N   0  0
    0.9040    0.5940    0.7210 C   0  0  2  0  0  0
   -1.1350   -0.5080    0.4920 C   0  0
   -0.5760    0.7870    1.0230 C   0  0  2  0  0  0
    1.4020    1.4960   -0.4080 C   0  0
   -2.6040   -0.6970    0.3610 C   0  0
   -1.3830    1.9550    0.4450 C   0  0
    2.8500    1.1950   -0.7790 C   0  0
    1.4160    2.9770   -0.0200 C   0  0
   -3.4470    0.4360    0.5430 C   0  0
   -3.1580   -1.9650    0.0510 C   0  0
   -2.8710    1.7790    0.8490 C   0  0
    3.2380    2.4630   -1.5280 C   0  0
    2.7150    3.5470   -0.5940 C   0  0
   -4.8520    0.2750    0.4300 C   0  0
   -4.5590   -2.1110   -0.0650 C   0  0
   -5.4020   -0.9920    0.1290 C   0  0
   -6.8670   -1.1480    0.0140 C   0  0
   -7.7310   -0.3120    0.1400 O   0  0
   -7.1090   -2.4260   -0.2720 O   0  0
    1.2870   -2.7890   -1.3790 H   0  0
    5.2680   -1.7420    1.4220 H   0  0
    3.1970   -0.4630    1.7190 H   0  0
    1.4980    0.7640    1.6090 H   0  0
   -0.7030    0.7910    2.0990 H   0  0
    0.7770    1.3590   -1.2810 H   0  0
   -0.9980    2.9040    0.8200 H   0  0
   -1.2910    1.9820   -0.6410 H   0  0
    2.9430    0.3110   -1.3930 H   0  0
    3.4690    1.0650    0.0990 H   0  0
    1.3970    3.1150    1.0510 H   0  0
    0.5510    3.4830   -0.4240 H   0  0
   -2.5220   -2.8260   -0.1000 H   0  0
   -3.4590    2.5530    0.3550 H   0  0
   -2.9770    1.9530    1.9220 H   0  0
    2.7420    2.5080   -2.4870 H   0  0
    4.3030    2.5390   -1.6920 H   0  0
    2.5590    4.4840   -1.1100 H   0  0
    3.4240    3.7250    0.2010 H   0  0
   -5.5020    1.1290    0.5760 H   0  0
   -4.9770   -3.0800   -0.3010 H   0  0
   -8.0220   -2.7210   -0.3850 H   0  0
  1  2  1  0
  2  3  2  0
  2  4  1  0
  3  5  1  0
  3  6  1  0
  4  7  2  0
  5  8  3  0
  6  9  2  0
  7 10  1  0
 10 11  1  0
 10 12  1  0
 11 13  2  0
 12 14  1  0
 12 15  1  0
 13 16  1  0
 14 17  1  0
 15 18  1  0
 15 19  1  0
 16 20  2  0
 16 21  1  0
 17 22  1  0
 18 23  1  0
 19 24  1  0
 20 25  1  0
 21 26  2  0
 25 27  2  0
 27 28  1  0
 28 29  2  0
 28 30  1  0
  7  9  1  0
 13 14  1  0
 20 22  1  0
 23 24  1  0
 26 27  1  0
  4 31  1  0
  6 32  1  0
  9 33  1  0
 12 34  1  0
 14 35  1  0
 15 36  1  0
 17 37  1  0
 17 38  1  0
 18 39  1  0
 18 40  1  0
 19 41  1  0
 19 42  1  0
 21 43  1  0
 22 44  1  0
 22 45  1  0
 23 46  1  0
 23 47  1  0
 24 48  1  0
 24 49  1  0
 25 50  1  0
 26 51  1  0
 30 52  1  0
M  END
> <Name>
CHEMBL1215331

> <IC50 nM>
10000

> <Molecule_ChEMBL_ID>
CHEMBL1215331

> <Smiles>
N#Cc1ccc(N2N=C3c4ccc(C(=O)O)cc4CC[C@@H]3[C@@H]2C2CCCC2)cc1Cl

$$$$
CHEMBL282650
  SciTegic08162514323D

 32 34  0  0  0  0            999 V2000
    4.2770   -2.5780   -0.0570 S   0  0
    4.8240   -1.0390   -0.5820 C   0  0
    2.7010   -2.0120    0.2850 C   0  0
    6.1230   -0.6910   -1.0570 C   0  0
    3.8340   -0.0410   -0.5160 C   0  0
    2.6660   -0.6440   -0.0230 C   0  0
    7.1800   -0.4060   -1.4410 N   0  0
    1.4260    0.1430    0.1680 C   0  0
    0.1900   -0.4800   -0.1030 C   0  0
    1.5370    1.4750    0.6150 C   0  0
   -0.9980    0.2790    0.0800 C   0  0
    0.3480    2.2230    0.7890 C   0  0
   -0.9160    1.6330    0.5180 C   0  0
   -2.3480   -0.3030   -0.1480 C   0  0
   -2.0470    2.3480    0.6700 N   0  0
   -3.3460    0.7270   -0.3070 O   0  0
   -2.7480   -1.1520    1.0630 C   0  0
   -2.3890   -1.1560   -1.4220 C   0  0
   -3.2130    1.9360    0.2970 C   0  0
   -4.4590    3.0350    0.5960 S   0  0
    1.8790   -2.6110    0.6740 H   0  0
    3.9360    1.0080   -0.7910 H   0  0
    0.1490   -1.5060   -0.4390 H   0  0
    2.5000    1.9180    0.8180 H   0  0
    0.4200    3.2460    1.1310 H   0  0
   -2.7640   -0.5660    1.9830 H   0  0
   -2.0490   -1.9760    1.2030 H   0  0
   -3.7420   -1.5780    0.9220 H   0  0
   -2.0410   -0.5820   -2.2810 H   0  0
   -1.7660   -2.0450   -1.3120 H   0  0
   -3.4060   -1.4860   -1.6330 H   0  0
   -5.7600    2.8830    0.3010 H   0  0
  1  2  1  0
  1  3  1  0
  2  4  1  0
  2  5  2  0
  3  6  2  0
  4  7  3  0
  6  8  1  0
  8  9  2  0
  8 10  1  0
  9 11  1  0
 10 12  2  0
 11 13  2  0
 11 14  1  0
 13 15  1  0
 14 16  1  0
 14 17  1  0
 14 18  1  0
 15 19  2  0
 19 20  1  0
  5  6  1  0
 12 13  1  0
 16 19  1  0
  3 21  1  0
  5 22  1  0
  9 23  1  0
 10 24  1  0
 12 25  1  0
 17 26  1  0
 17 27  1  0
 17 28  1  0
 18 29  1  0
 18 30  1  0
 18 31  1  0
 20 32  1  0
M  END
> <Name>
CHEMBL282650

> <IC50 nM>
1316

> <Molecule_ChEMBL_ID>
CHEMBL282650

> <Smiles>
CC1(C)OC(S)=Nc2ccc(-c3csc(C#N)c3)cc21

$$$$
CHEMBL410683
  SciTegic08162514323D

 51 54  0  0  1  0            999 V2000
   -5.8910   -0.7930   -1.5370 O   0  0
   -4.9160   -0.8360   -0.8240 C   0  0
   -3.8090   -1.7580   -1.1130 C   0  0
   -4.7810    0.0430    0.3890 C   0  0
   -2.6060   -1.6680   -0.5060 C   0  0
   -3.3400    0.5590    0.5160 C   0  0
   -2.2620   -0.5600    0.4940 C   0  0  2  0  0  0
   -1.5270   -2.6870   -0.8120 C   0  0
   -0.8980    0.0760    0.1000 C   0  0  2  0  0  0
   -2.1720   -1.2170    1.8790 C   0  0
   -0.2130   -2.0100   -1.2070 C   0  0
    0.2190   -0.9690   -0.1600 C   0  0  1  0  0  0
   -0.4140    1.1740    1.0840 C   0  0
    1.4200   -0.1640   -0.6870 C   0  0  1  0  0  0
    0.8710    1.8810    0.6040 C   0  0
    1.9750    0.8460    0.3500 C   0  0  2  0  0  0
    2.6800   -0.8830   -1.1950 C   0  0
    3.2250    1.3170   -0.3530 C   0  0
    2.3850    0.1330    1.6410 C   0  0
    3.6840    0.2380   -1.2320 C   0  0
    3.7830    2.5330   -0.1890 C   0  0
    4.6950    0.2400   -1.8960 O   0  0
    5.0310    2.9450   -0.9260 C   0  0
   -3.9840   -2.5330   -1.8440 H   0  0
   -5.0570   -0.5330    1.2740 H   0  0
   -5.4840    0.8790    0.3240 H   0  0
   -3.2560    1.1600    1.4220 H   0  0
   -3.1620    1.2440   -0.3140 H   0  0
   -1.8420   -3.3590   -1.6130 H   0  0
   -1.3710   -3.3140    0.0660 H   0  0
   -1.0780    0.5780   -0.8510 H   0  0
   -3.0900   -1.7400    2.1430 H   0  0
   -1.9820   -0.4670    2.6490 H   0  0
   -1.3550   -1.9390    1.9100 H   0  0
    0.5660   -2.7660   -1.3220 H   0  0
   -0.3360   -1.5370   -2.1820 H   0  0
    0.4800   -1.4800    0.7680 H   0  0
   -1.1860    1.9300    1.2210 H   0  0
   -0.2420    0.7330    2.0680 H   0  0
    1.0610    0.4000   -1.5410 H   0  0
    1.1890    2.6060    1.3540 H   0  0
    0.6640    2.4400   -0.3090 H   0  0
    2.5330   -1.3180   -2.1760 H   0  0
    3.0060   -1.6520   -0.5120 H   0  0
    3.1170   -0.6520    1.4570 H   0  0
    1.5180   -0.3260    2.1190 H   0  0
    2.8200    0.8380    2.3480 H   0  0
    3.3340    3.2440    0.4880 H   0  0
    5.1860    4.0200   -0.8220 H   0  0
    5.8870    2.3810   -0.5530 H   0  0
    4.9260    2.7250   -1.9880 H   0  0
  1  2  2  0
  2  3  1  0
  2  4  1  0
  3  5  2  0
  4  6  1  0
  5  7  1  0
  5  8  1  0
  7  9  1  0
  7 10  1  0
  8 11  1  0
  9 12  1  0
  9 13  1  0
 12 14  1  0
 13 15  1  0
 14 16  1  0
 14 17  1  0
 16 18  1  0
 16 19  1  0
 17 20  1  0
 18 21  2  0
 20 22  2  0
 21 23  1  0
  6  7  1  0
 12 11  1  0
 15 16  1  0
 18 20  1  0
  3 24  1  0
  4 25  1  0
  4 26  1  0
  6 27  1  0
  6 28  1  0
  8 29  1  0
  8 30  1  0
  9 31  1  0
 10 32  1  0
 10 33  1  0
 10 34  1  0
 11 35  1  0
 11 36  1  0
 12 37  1  0
 13 38  1  0
 13 39  1  0
 14 40  1  0
 15 41  1  0
 15 42  1  0
 17 43  1  0
 17 44  1  0
 19 45  1  0
 19 46  1  0
 19 47  1  0
 21 48  1  0
 23 49  1  0
 23 50  1  0
 23 51  1  0
M  END
> <Name>
CHEMBL410683

> <IC50 nM>
6060

> <Molecule_ChEMBL_ID>
CHEMBL410683

> <Smiles>
C/C=C1\C(=O)C[C@H]2[C@@H]3CCC4=CC(=O)CC[C@]4(C)[C@H]3CC[C@]12C

$$$$
CHEMBL3982975
  SciTegic08162514323D

 75 79  0  0  1  0            999 V2000
    2.4860    1.1720    2.6520 O   0  0
    2.3420    0.1500    2.0230 C   0  0
    1.7320    0.0880    0.8420 O   0  0
    2.7730   -1.0390    2.4340 O   0  0
    1.3850    1.3750    0.3420 C   0  0  2  0  0  0
    3.1290   -1.0410    3.8090 C   0  0
    0.3090    1.2480   -0.7710 C   0  0  2  0  0  0
    2.6520    2.0920   -0.1720 C   0  0
    1.8830   -0.9820    4.6490 C   0  0
   -0.9670    0.5840   -0.3670 C   0  0
    0.8650    0.5820   -2.0610 C   0  0  2  0  0  0
    3.1860    1.4080   -1.4390 C   0  0  1  0  0  0
    1.6150    0.1500    5.3180 C   0  0
   -1.9240    0.3180   -1.3890 C   0  0
   -1.2640    0.2110    0.9770 C   0  0
    2.0860    1.3970   -2.5120 C   0  0  1  0  0  0
   -0.1760    0.4790   -3.2050 C   0  0
    4.3360    2.1020   -2.2190 C   0  0  2  0  0  0
    3.6110   -0.0370   -1.1270 C   0  0
   -3.1390   -0.3420   -1.0760 C   0  0
   -1.6330    0.7500   -2.7790 C   0  0
   -2.4840   -0.4390    1.2810 C   0  0
    2.8220    0.8980   -3.7560 C   0  0
    5.5940    1.8830   -1.6000 O   0  0
    4.1580    3.5550   -2.3710 C   0  0
    4.2680    1.3870   -3.5880 C   0  0
   -3.4140   -0.7210    0.2560 C   0  0
    4.0100    4.7310   -2.4940 C   0  0
   -4.6800   -1.4140    0.5740 C   0  0
    3.8280    6.1700   -2.6580 C   0  0
   -5.7910   -1.1930    0.1560 O   0  0
   -4.4670   -2.4260    1.4690 N   0  0
   -5.5200   -3.1950    1.8970 C   0  0
   -5.3930   -4.5980    2.0590 C   0  0
   -6.7540   -2.5820    2.1840 C   0  0
   -6.4450   -5.3560    2.4840 N   0  0
   -4.1090   -5.2970    1.7700 C   0  0
   -7.8260   -3.3770    2.6210 C   0  0
   -7.6430   -4.7640    2.7620 C   0  0
    0.9840    1.9450    1.1840 H   0  0
    3.7480   -0.1640    4.0000 H   0  0
    3.6760   -1.9610    4.0180 H   0  0
    0.0200    2.2680   -1.0250 H   0  0
    2.3950    3.1370   -0.3590 H   0  0
    3.4160    2.0940    0.6070 H   0  0
    1.1620   -1.7750    4.7750 H   0  0
    1.1760   -0.4360   -1.8140 H   0  0
    0.7640    0.3440    5.9530 H   0  0
    2.3400    0.9430    5.1970 H   0  0
   -0.5740    0.4080    1.7870 H   0  0
    1.7480    2.4040   -2.7070 H   0  0
    0.0620    1.1680   -4.0120 H   0  0
   -0.1090   -0.5160   -3.6450 H   0  0
    4.0900   -0.5140   -1.9820 H   0  0
    2.7480   -0.6410   -0.8480 H   0  0
    4.3160   -0.0590   -0.2970 H   0  0
   -3.8580   -0.5550   -1.8520 H   0  0
   -1.8240    1.8260   -2.8220 H   0  0
   -2.3220    0.2950   -3.4940 H   0  0
   -2.7030   -0.7210    2.2990 H   0  0
    2.7970   -0.1820   -3.8110 H   0  0
    2.3710    1.2720   -4.6640 H   0  0
    6.2750    2.1350   -2.2420 H   0  0
    4.5700    2.0160   -4.4140 H   0  0
    4.9260    0.5270   -3.6070 H   0  0
    3.4590    6.6100   -1.7320 H   0  0
    3.1050    6.3690   -3.4490 H   0  0
    4.7750    6.6450   -2.9180 H   0  0
   -3.5450   -2.6040    1.8130 H   0  0
   -6.8930   -1.5160    2.0740 H   0  0
   -4.1640   -6.3830    1.8460 H   0  0
   -3.3440   -4.9530    2.4650 H   0  0
   -3.7810   -5.0510    0.7600 H   0  0
   -8.7810   -2.9280    2.8460 H   0  0
   -8.4670   -5.3770    3.0980 H   0  0
  1  2  2  0
  2  3  1  0
  2  4  1  0
  5  3  1  0
  4  6  1  0
  5  7  1  0
  5  8  1  0
  6  9  1  0
  7 10  1  0
  7 11  1  0
  8 12  1  0
  9 13  2  0
 10 14  2  0
 10 15  1  0
 11 16  1  0
 11 17  1  0
 12 18  1  0
 12 19  1  0
 14 20  1  0
 14 21  1  0
 15 22  2  0
 16 23  1  0
 18 24  1  0
 18 25  1  0
 18 26  1  0
 20 27  2  0
 25 28  3  0
 27 29  1  0
 28 30  1  0
 29 31  2  0
 29 32  1  0
 32 33  1  0
 33 34  2  0
 33 35  1  0
 34 36  1  0
 34 37  1  0
 35 38  2  0
 36 39  2  0
 12 16  1  0
 17 21  1  0
 22 27  1  0
 23 26  1  0
 38 39  1  0
  5 40  1  0
  6 41  1  0
  6 42  1  0
  7 43  1  0
  8 44  1  0
  8 45  1  0
  9 46  1  0
 11 47  1  0
 13 48  1  0
 13 49  1  0
 15 50  1  0
 16 51  1  0
 17 52  1  0
 17 53  1  0
 19 54  1  0
 19 55  1  0
 19 56  1  0
 20 57  1  0
 21 58  1  0
 21 59  1  0
 22 60  1  0
 23 61  1  0
 23 62  1  0
 24 63  1  0
 26 64  1  0
 26 65  1  0
 30 66  1  0
 30 67  1  0
 30 68  1  0
 32 69  1  0
 35 70  1  0
 37 71  1  0
 37 72  1  0
 37 73  1  0
 38 74  1  0
 39 75  1  0
M  END
> <Name>
CHEMBL3982975

> <IC50 nM>
84

> <Molecule_ChEMBL_ID>
CHEMBL3982975

> <Smiles>
C=CCOC(=O)O[C@H]1C[C@@]2(C)[C@@H](CC[C@@]2(O)C#CC)[C@@H]2CCc3cc(C(=O)Nc4cccnc4C)ccc3[C@H]21

$$$$
CHEMBL3963259
  SciTegic08162514323D

 62 65  0  0  1  0            999 V2000
   -4.3150   -1.9450    0.2440 S   0  0
   -4.7030   -2.1780   -1.1370 O   0  0
   -3.9920   -3.1680    0.9610 O   0  0
   -2.8400   -1.0250    0.1800 N   0  0
   -5.6540   -1.1170    1.0900 C   0  0
   -1.6540   -1.6720   -0.3560 C   0  0  2  0  0  0
   -6.7680   -2.1070    1.4300 C   0  0
   -0.4920   -0.6820   -0.4380 C   0  0  2  0  0  0
   -1.9630   -2.3300   -1.7010 C   0  0
   -7.8260   -1.5100    2.3570 C   0  0
   -7.3730   -2.7620    0.1870 C   0  0
    0.6410   -1.3260   -1.0000 O   0  0
   -0.1410   -0.1410    0.9020 C   0  0
    1.7770   -0.6230   -1.1020 C   0  0
   -0.4710    1.1860    1.2340 C   0  0
    0.5210   -0.9530    1.8380 C   0  0
    3.0270   -1.2990   -1.1310 C   0  0
    1.7290    0.7950   -1.1800 C   0  0
   -0.1390    1.6970    2.5000 C   0  0
    0.8540   -0.4410    3.1030 C   0  0
    4.2250   -0.5450   -1.2380 C   0  0
    2.9280    1.5450   -1.2850 C   0  0
    0.5230    0.8830    3.4360 C   0  0
    4.1500    0.8340   -1.3130 C   0  0
    5.4770   -1.1330   -1.2740 C   0  0
    5.4570    1.1890   -1.4020 N   0  0
    6.2070    0.0330   -1.3790 N   0  0
    5.9550    2.4490   -1.5000 C   0  0
    7.0040    2.7270   -2.3990 C   0  0
    5.4240    3.4820   -0.7030 C   0  0
    7.5180    4.0310   -2.4980 C   0  0
    5.9400    4.7850   -0.8050 C   0  0
    6.9860    5.0610   -1.7010 C   0  0
    7.4750    6.2950   -1.7970 F   0  0
   -2.6150   -0.6680    1.1190 H   0  0
   -5.2740   -0.6410    1.9940 H   0  0
   -6.0330   -0.3090    0.4650 H   0  0
   -1.4630   -2.4280    0.4060 H   0  0
   -6.3540   -3.0220    1.8550 H   0  0
   -0.7810    0.1370   -1.0960 H   0  0
   -2.5980   -3.2090   -1.5880 H   0  0
   -1.0450   -2.6410   -2.1990 H   0  0
   -2.4790   -1.6310   -2.3610 H   0  0
   -8.5960   -2.2360    2.6170 H   0  0
   -8.3180   -0.6600    1.8850 H   0  0
   -7.3710   -1.1580    3.2830 H   0  0
   -8.2010   -3.4140    0.4610 H   0  0
   -7.7330   -2.0060   -0.5100 H   0  0
   -6.6290   -3.3670   -0.3300 H   0  0
   -0.9800    1.8160    0.5190 H   0  0
    0.7790   -1.9730    1.5900 H   0  0
    3.0530   -2.3790   -1.0720 H   0  0
    0.7770    1.3050   -1.1560 H   0  0
   -0.3930    2.7170    2.7540 H   0  0
    1.3630   -1.0660    3.8220 H   0  0
    2.9020    2.6230   -1.3460 H   0  0
    0.7790    1.2770    4.4080 H   0  0
    5.8280   -2.1560   -1.2360 H   0  0
    7.4260    1.9490   -3.0200 H   0  0
    4.6170    3.2910   -0.0080 H   0  0
    8.3220    4.2380   -3.1880 H   0  0
    5.5270    5.5740   -0.1920 H   0  0
  1  2  2  0
  1  3  2  0
  1  4  1  0
  1  5  1  0
  4  6  1  0
  5  7  1  0
  6  8  1  0
  6  9  1  0
  7 10  1  0
  7 11  1  0
  8 12  1  0
  8 13  1  0
 12 14  1  0
 13 15  2  0
 13 16  1  0
 14 17  2  0
 14 18  1  0
 15 19  1  0
 16 20  2  0
 17 21  1  0
 18 22  2  0
 19 23  2  0
 21 24  2  0
 21 25  1  0
 24 26  1  0
 25 27  2  0
 26 28  1  0
 28 29  2  0
 28 30  1  0
 29 31  1  0
 30 32  2  0
 31 33  2  0
 33 34  1  0
 20 23  1  0
 22 24  1  0
 26 27  1  0
 32 33  1  0
  4 35  1  0
  5 36  1  0
  5 37  1  0
  6 38  1  0
  7 39  1  0
  8 40  1  0
  9 41  1  0
  9 42  1  0
  9 43  1  0
 10 44  1  0
 10 45  1  0
 10 46  1  0
 11 47  1  0
 11 48  1  0
 11 49  1  0
 15 50  1  0
 16 51  1  0
 17 52  1  0
 18 53  1  0
 19 54  1  0
 20 55  1  0
 22 56  1  0
 23 57  1  0
 25 58  1  0
 29 59  1  0
 30 60  1  0
 31 61  1  0
 32 62  1  0
M  END
> <Name>
CHEMBL3963259

> <IC50 nM>
44

> <Molecule_ChEMBL_ID>
CHEMBL3963259

> <Smiles>
CC(C)CS(=O)(=O)N[C@@H](C)[C@H](Oc1ccc2c(cnn2-c2ccc(F)cc2)c1)c1ccccc1

$$$$
CHEMBL4449687
  SciTegic08162514323D

 74 78  0  0  0  0            999 V2000
   -0.4000    2.7640    4.5720 F   0  0
   -1.7190    2.5590    4.5330 C   0  0
   -2.2620    1.2560    4.6130 C   0  0
   -2.5740    3.6680    4.4080 C   0  0
   -1.4470    0.1600    4.7350 N   0  0
   -3.6580    1.0800    4.5670 C   0  0
   -3.9670    3.4840    4.3630 C   0  0
   -0.4320   -0.0900    5.6520 C   0  0
   -1.4080   -1.0100    3.9750 C   0  0
   -4.5080    2.1910    4.4430 C   0  0
   -0.0700    0.6450    6.5430 O   0  0
    0.0880   -1.3590    5.3400 N   0  0
   -0.5080   -1.8400    4.3710 N   0  0
   -2.3200   -1.2870    2.8070 C   0  0
    1.1090   -1.9800    6.0100 C   0  0
   -1.7050   -0.8630    1.4730 C   0  0
    1.8890   -2.9570    5.3600 C   0  0
    1.3810   -1.6460    7.3500 C   0  0
   -2.6070   -1.1780    0.2790 C   0  0
    2.9360   -3.5940    6.0470 C   0  0
    2.4280   -2.2830    8.0350 C   0  0
   -1.9820   -0.7620   -1.0040 C   0  0
    3.2070   -3.2580    7.3850 C   0  0
   -2.1990    0.5330   -1.5040 C   0  0
   -1.1760   -1.6640   -1.7190 C   0  0
    4.3150   -3.9320    8.1120 C   0  0
   -1.6090    0.9280   -2.7190 C   0  0
   -0.5840   -1.2730   -2.9320 C   0  0
    4.2850   -3.5640    9.4320 F   0  0
    5.5140   -3.5630    7.5610 F   0  0
    4.1640   -5.2910    8.0120 F   0  0
   -0.8010    0.0250   -3.4360 C   0  0
   -0.1890    0.4320   -4.6910 C   0  0
    0.5000    1.6560   -4.7770 C   0  0
   -0.2850   -0.3980   -5.8240 C   0  0
    1.0920    2.0490   -5.9920 C   0  0
    0.3050   -0.0040   -7.0370 C   0  0
    0.9940    1.2190   -7.1270 C   0  0
    1.8160    3.3460   -6.0700 C   0  0
    1.5450    1.5780   -8.2700 O   0  0
    3.3110    3.1580   -6.0880 C   0  0
    0.9880    1.0610   -9.4690 C   0  0
    3.9340    3.2150   -7.1230 O   0  0
    3.8670    2.9320   -4.9020 O   0  0
    1.7660   -0.1860   -9.8950 C   0  0
   -2.1640    4.6660    4.3480 H   0  0
   -4.0940    0.0920    4.6270 H   0  0
   -4.6210    4.3380    4.2680 H   0  0
   -5.5780    2.0510    4.4080 H   0  0
   -2.5020   -2.3590    2.7270 H   0  0
   -3.2810   -0.7970    2.9610 H   0  0
   -1.4410    0.1930    1.4880 H   0  0
   -0.7210   -1.3140    1.3400 H   0  0
    1.6950   -3.2270    4.3300 H   0  0
    0.7930   -0.8980    7.8670 H   0  0
   -2.8420   -2.2420    0.2420 H   0  0
   -3.5740   -0.6870    0.3890 H   0  0
    3.5310   -4.3420    5.5430 H   0  0
    2.6330   -2.0230    9.0650 H   0  0
   -2.8200    1.2310   -0.9610 H   0  0
   -1.0060   -2.6600   -1.3380 H   0  0
   -1.7870    1.9280   -3.0900 H   0  0
    0.0330   -1.9790   -3.4690 H   0  0
    0.5820    2.3010   -3.9140 H   0  0
   -0.8110   -1.3420   -5.7770 H   0  0
    0.2290   -0.6430   -7.9040 H   0  0
    1.5330    3.9730   -5.2270 H   0  0
    1.5020    3.8850   -6.9630 H   0  0
   -0.0570    0.8180   -9.2830 H   0  0
    1.0510    1.8340  -10.2340 H   0  0
    4.8150    2.7520   -4.8500 H   0  0
    1.2230   -0.7320  -10.6660 H   0  0
    2.7500    0.0860  -10.2770 H   0  0
    1.9100   -0.8570   -9.0490 H   0  0
  1  2  1  0
  2  3  2  0
  2  4  1  0
  3  5  1  0
  3  6  1  0
  4  7  2  0
  5  8  1  0
  5  9  1  0
  6 10  2  0
  8 11  2  0
  8 12  1  0
  9 13  2  0
  9 14  1  0
 12 15  1  0
 14 16  1  0
 15 17  2  0
 15 18  1  0
 16 19  1  0
 17 20  1  0
 18 21  2  0
 19 22  1  0
 20 23  2  0
 22 24  2  0
 22 25  1  0
 23 26  1  0
 24 27  1  0
 25 28  2  0
 26 29  1  0
 26 30  1  0
 26 31  1  0
 27 32  2  0
 32 33  1  0
 33 34  2  0
 33 35  1  0
 34 36  1  0
 35 37  2  0
 36 38  2  0
 36 39  1  0
 38 40  1  0
 39 41  1  0
 40 42  1  0
 41 43  2  0
 41 44  1  0
 42 45  1  0
  7 10  1  0
 12 13  1  0
 21 23  1  0
 28 32  1  0
 37 38  1  0
  4 46  1  0
  6 47  1  0
  7 48  1  0
 10 49  1  0
 14 50  1  0
 14 51  1  0
 16 52  1  0
 16 53  1  0
 17 54  1  0
 18 55  1  0
 19 56  1  0
 19 57  1  0
 20 58  1  0
 21 59  1  0
 24 60  1  0
 25 61  1  0
 27 62  1  0
 28 63  1  0
 34 64  1  0
 35 65  1  0
 37 66  1  0
 39 67  1  0
 39 68  1  0
 42 69  1  0
 42 70  1  0
 44 71  1  0
 45 72  1  0
 45 73  1  0
 45 74  1  0
M  END
> <Name>
CHEMBL4449687

> <IC50 nM>
22300

> <Molecule_ChEMBL_ID>
CHEMBL4449687

> <Smiles>
CCOc1ccc(-c2ccc(CCCc3nn(-c4ccc(C(F)(F)F)cc4)c(=O)n3-c3ccccc3F)cc2)cc1CC(=O)O

$$$$
CHEMBL4576596
  SciTegic08162514323D

 84 88  0  0  1  0            999 V2000
   -6.3090   -1.3030   -2.6190 O   0  0
   -5.2990   -1.0550   -2.0000 C   0  0
   -4.6520   -2.0860   -1.1740 C   0  0
   -4.6660    0.3110   -2.0530 C   0  0
   -3.4570   -1.9000   -0.5740 C   0  0
   -3.1390    0.2010   -1.9830 C   0  0
   -2.6500   -0.6170   -0.7620 C   0  0  2  0  0  0
   -2.8890   -2.9770    0.3300 C   0  0
   -1.1130   -0.8670   -0.8460 C   0  0  1  0  0  0
   -1.3810   -3.1800    0.1500 C   0  0
   -0.2640    0.4360   -0.9060 C   0  0  1  0  0  0
   -0.6210   -1.8500    0.2480 C   0  0  1  0  0  0
   -0.6000    1.4000    0.1720 C   0  0
    1.2540    0.1370   -0.9590 C   0  0
    0.8830   -2.1020    0.0470 C   0  0  1  0  0  0
   -0.1740    2.7360    0.0760 C   0  0
   -1.3420    0.9770    1.2890 C   0  0
    1.7090   -0.8130    0.1700 C   0  0  1  0  0  0
    1.5720   -3.0290    1.0490 C   0  0
   -0.4900    3.6500    1.0980 C   0  0
   -1.6600    1.8890    2.3110 C   0  0
    3.1520   -1.3830    0.1150 C   0  0  2  0  0  0
    1.4840   -0.1820    1.5550 C   0  0
    3.0510   -2.6170    1.0410 C   0  0
   -1.2340    3.2290    2.2170 C   0  0
    4.1020   -0.4550    0.6170 O   0  0
    3.5800   -1.7680   -1.2400 C   0  0
   -1.5430    4.1190    3.2110 N   0  0
    3.9340   -2.0820   -2.3320 C   0  0
   -0.9960    5.4830    3.1720 C   0  0
   -2.4200    3.7340    4.3260 C   0  0
    4.3750   -2.4650   -3.6700 C   0  0
   -1.8380    6.3870    2.2710 C   0  0
   -1.6110    3.1250    5.4730 C   0  0
    3.4000   -3.4960   -4.2350 C   0  0
    4.3990   -1.2230   -4.5590 C   0  0
    5.7790   -3.0660   -3.5740 C   0  0
   -5.1680   -3.0270   -1.0450 H   0  0
   -4.9630    0.8260   -2.9670 H   0  0
   -5.0350    0.9060   -1.2190 H   0  0
   -2.7170    1.2050   -1.9590 H   0  0
   -2.7750   -0.2620   -2.9010 H   0  0
   -2.8520   -0.0200    0.1270 H   0  0
   -3.0900   -2.6930    1.3650 H   0  0
   -3.4040   -3.9260    0.1680 H   0  0
   -0.9470   -1.3750   -1.7970 H   0  0
   -1.0250   -3.8810    0.9060 H   0  0
   -1.1930   -3.6480   -0.8180 H   0  0
   -0.5060    0.9490   -1.8360 H   0  0
   -0.8030   -1.4180    1.2320 H   0  0
    1.8360    1.0610   -0.9340 H   0  0
    1.4650   -0.3130   -1.9300 H   0  0
    1.0160   -2.5270   -0.9400 H   0  0
    0.3970    3.0660   -0.7790 H   0  0
   -1.6700   -0.0490    1.3670 H   0  0
    1.1580   -2.8950    2.0390 H   0  0
    1.4430   -4.0660    0.7850 H   0  0
   -0.1540    4.6740    1.0060 H   0  0
   -2.2300    1.5470    3.1600 H   0  0
    0.4750   -0.3630    1.9260 H   0  0
    1.6350    0.8960    1.5180 H   0  0
    2.1840   -0.5920    2.2830 H   0  0
    3.3480   -2.3750    2.0550 H   0  0
    3.6900   -3.4320    0.7300 H   0  0
    3.9770    0.3730    0.1270 H   0  0
    0.0370    5.4450    2.8240 H   0  0
   -0.9550    5.8810    4.1870 H   0  0
   -2.9730    4.6090    4.6660 H   0  0
   -3.1680    3.0290    3.9670 H   0  0
   -1.4100    7.3850    2.1840 H   0  0
   -2.8480    6.4900    2.6660 H   0  0
   -1.9140    5.9670    1.2680 H   0  0
   -1.2830    2.1170    5.2210 H   0  0
   -0.7380    3.7380    5.6970 H   0  0
   -2.2150    3.0630    6.3790 H   0  0
    3.3480   -4.3910   -3.6110 H   0  0
    3.7010   -3.8050   -5.2350 H   0  0
    2.3950   -3.0800   -4.3010 H   0  0
    5.0720   -0.4590   -4.1740 H   0  0
    3.4020   -0.7810   -4.6310 H   0  0
    4.7230   -1.4770   -5.5690 H   0  0
    6.4960   -2.3590   -3.1580 H   0  0
    6.1370   -3.3630   -4.5610 H   0  0
    5.7760   -3.9510   -2.9400 H   0  0
  1  2  2  0
  2  3  1  0
  2  4  1  0
  3  5  2  0
  4  6  1  0
  5  7  1  0
  5  8  1  0
  9  7  1  0
  8 10  1  0
  9 11  1  0
  9 12  1  0
 11 13  1  0
 11 14  1  0
 12 15  1  0
 13 16  2  0
 13 17  1  0
 14 18  1  0
 15 19  1  0
 16 20  1  0
 17 21  2  0
 18 22  1  0
 18 23  1  0
 19 24  1  0
 20 25  2  0
 22 26  1  0
 22 27  1  0
 25 28  1  0
 27 29  3  0
 28 30  1  0
 28 31  1  0
 29 32  1  0
 30 33  1  0
 31 34  1  0
 32 35  1  0
 32 36  1  0
 32 37  1  0
  7  6  1  0
 12 10  1  0
 15 18  1  0
 21 25  1  0
 22 24  1  0
  3 38  1  0
  4 39  1  0
  4 40  1  0
  6 41  1  0
  6 42  1  0
  7 43  1  0
  8 44  1  0
  8 45  1  0
  9 46  1  0
 10 47  1  0
 10 48  1  0
 11 49  1  0
 12 50  1  0
 14 51  1  0
 14 52  1  0
 15 53  1  0
 16 54  1  0
 17 55  1  0
 19 56  1  0
 19 57  1  0
 20 58  1  0
 21 59  1  0
 23 60  1  0
 23 61  1  0
 23 62  1  0
 24 63  1  0
 24 64  1  0
 26 65  1  0
 30 66  1  0
 30 67  1  0
 31 68  1  0
 31 69  1  0
 33 70  1  0
 33 71  1  0
 33 72  1  0
 34 73  1  0
 34 74  1  0
 34 75  1  0
 35 76  1  0
 35 77  1  0
 35 78  1  0
 36 79  1  0
 36 80  1  0
 36 81  1  0
 37 82  1  0
 37 83  1  0
 37 84  1  0
M  END
> <Name>
CHEMBL4576596

> <IC50 nM>
13.9

> <Molecule_ChEMBL_ID>
CHEMBL4576596

> <Smiles>
CCN(CC)c1ccc([C@H]2C[C@@]3(C)[C@@H](CC[C@@]3(O)C#CC(C)(C)C)[C@@H]3CCC4=CC(=O)CC[C@@H]4[C@H]32)cc1

$$$$
CHEMBL4062345
  SciTegic08162514323D

 41 44  0  0  1  0            999 V2000
   -5.6480   -1.2990   -0.8030 O   0  0
   -4.7730   -0.4670   -0.8630 C   0  0
   -3.4510   -0.8480   -0.8050 N   0  0
   -5.1150    1.0040   -1.0140 C   0  0
   -2.4490    0.0640   -0.8320 C   0  0
   -4.0290    1.8830   -0.6910 O   0  0
   -2.7520    1.4550   -0.7680 C   0  0
   -1.0960   -0.3540   -0.9120 C   0  0
   -1.7050    2.4060   -0.7690 C   0  0
   -0.0510    0.6050   -0.9220 C   0  0
   -0.3590    1.9840   -0.8480 C   0  0
    1.2270    0.2050   -1.0000 N   0  0
    1.6920   -1.0350   -0.3120 C   0  0  2  0  0  0
    2.2050    0.9820   -1.8120 C   0  0
    1.4060   -1.0240    1.1580 C   0  0
    3.1940   -1.3070   -0.5960 C   0  0
    3.6740    0.9240   -1.3140 C   0  0
    1.7910    0.0780    1.9410 C   0  0
    0.7520   -2.1150    1.7580 C   0  0
    3.9460   -0.1250   -0.3870 O   0  0
    1.5240    0.0900    3.3200 C   0  0
    0.4850   -2.1040    3.1370 C   0  0
    0.8690   -1.0020    3.9180 C   0  0
   -3.2400   -1.8240   -0.7340 H   0  0
   -5.4020    1.1930   -2.0470 H   0  0
   -5.9670    1.2660   -0.3850 H   0  0
   -0.8610   -1.4080   -0.9670 H   0  0
   -1.9350    3.4610   -0.7110 H   0  0
    0.4240    2.7300   -0.8520 H   0  0
    1.1330   -1.8730   -0.7360 H   0  0
    1.8950    2.0210   -1.9260 H   0  0
    2.1700    0.5570   -2.8120 H   0  0
    3.5900   -2.0860    0.0570 H   0  0
    3.3520   -1.6510   -1.6190 H   0  0
    3.9570    1.8570   -0.8280 H   0  0
    4.3380    0.8030   -2.1720 H   0  0
    2.2930    0.9200    1.4880 H   0  0
    0.4530   -2.9670    1.1620 H   0  0
    1.8190    0.9370    3.9220 H   0  0
   -0.0170   -2.9430    3.5960 H   0  0
    0.6640   -0.9940    4.9790 H   0  0
  1  2  2  0
  2  3  1  0
  2  4  1  0
  3  5  1  0
  4  6  1  0
  5  7  2  0
  5  8  1  0
  7  9  1  0
  8 10  2  0
  9 11  2  0
 10 12  1  0
 12 13  1  0
 12 14  1  0
 13 15  1  0
 13 16  1  0
 14 17  1  0
 15 18  2  0
 15 19  1  0
 16 20  1  0
 18 21  1  0
 19 22  2  0
 21 23  2  0
  6  7  1  0
 10 11  1  0
 17 20  1  0
 22 23  1  0
  3 24  1  0
  4 25  1  0
  4 26  1  0
  8 27  1  0
  9 28  1  0
 11 29  1  0
 13 30  1  0
 14 31  1  0
 14 32  1  0
 16 33  1  0
 16 34  1  0
 17 35  1  0
 17 36  1  0
 18 37  1  0
 19 38  1  0
 21 39  1  0
 22 40  1  0
 23 41  1  0
M  END
> <Name>
CHEMBL4062345

> <IC50 nM>
10000

> <Molecule_ChEMBL_ID>
CHEMBL4062345

> <Smiles>
O=C1COc2ccc(N3CCOC[C@H]3c3ccccc3)cc2N1

$$$$
CHEMBL1233786
  SciTegic08162514323D

 84 88  0  0  1  0            999 V2000
   -0.8340   -6.8010   -3.1070 F   0  0
   -1.5680   -6.9320   -2.0060 C   0  0
   -2.4360   -5.8990   -1.6110 C   0  0
   -1.4780   -8.1060   -1.2380 C   0  0
   -3.2130   -6.0370   -0.4470 C   0  0
   -2.2560   -8.2440   -0.0740 C   0  0
   -3.1250   -7.2130    0.3240 C   0  0
   -4.1270   -4.9380   -0.0390 C   0  0
   -3.8480   -7.3540    1.4180 O   0  0
   -3.3610   -4.6270    1.2480 C   0  0
   -5.5430   -5.4510    0.2270 C   0  0
   -4.0960   -3.7790   -1.0370 C   0  0
   -3.7290   -8.5670    2.1450 C   0  0
   -2.1350   -3.7460    1.0060 C   0  0  2  0  0  0
   -1.4880   -4.1990   -0.1600 O   0  0
   -1.1950   -3.9730    2.1910 C   0  0
   -2.4960   -2.2730    0.8130 C   0  0
   -1.3090   -5.2680    2.6250 F   0  0
   -1.5330   -3.1190    3.2110 F   0  0
    0.0980   -3.7330    1.8030 F   0  0
   -1.2890   -1.4340    0.7890 N   0  0
   -1.4020   -0.0920    0.7190 C   0  0
   -0.1700    0.6370    0.6110 C   0  0
   -2.6450    0.5900    0.7480 C   0  0
   -0.2480    2.0200    0.5370 C   0  0
    1.1070    0.0760    0.5720 C   0  0
   -2.6760    2.0080    0.6700 C   0  0
    1.0570    2.3910    0.4470 N   0  0
   -1.4670    2.7380    0.5630 C   0  0
    1.8200    1.2480    0.4690 N   0  0
   -3.9630    2.7170    0.6990 C   0  0
    1.5410    3.6560    0.3500 C   0  0
    2.6090    3.9390   -0.5230 C   0  0
    0.9750    4.6880    1.1210 C   0  0
    3.1090    5.2500   -0.6210 C   0  0
    1.4750    5.9960    1.0220 C   0  0
    4.2420    5.5510   -1.5470 C   0  0
    2.5410    6.2790    0.1500 C   0  0
    4.2170    5.1900   -2.6990 O   0  0
    5.3520    6.2660   -1.0610 N   0  0
    6.4550    6.7090   -1.8950 C   0  0  1  0  0  0
    5.5040    6.6210    0.3360 C   0  0
    6.0060    7.4000   -3.1580 C   0  0
    7.2600    7.6250   -0.9630 C   0  0
    6.9610    7.0760    0.4430 C   0  0
    5.4490    8.4730   -3.1170 O   0  0
    6.2420    6.7910   -4.3570 N   0  0
   -2.5040   -4.9980   -2.2030 H   0  0
   -0.8140   -8.9030   -1.5370 H   0  0
   -2.1840   -9.1470    0.5140 H   0  0
   -3.0800   -5.5470    1.7600 H   0  0
   -4.0200   -4.1740    1.9880 H   0  0
   -5.8710   -6.1520   -0.5410 H   0  0
   -6.2540   -4.6250    0.2500 H   0  0
   -5.5940   -5.9610    1.1880 H   0  0
   -4.6090   -4.0310   -1.9650 H   0  0
   -3.0700   -3.5140   -1.2870 H   0  0
   -4.5780   -2.8970   -0.6170 H   0  0
   -4.3110   -8.4750    3.0630 H   0  0
   -4.0000   -9.3890    1.4820 H   0  0
   -2.6840   -8.6950    2.4240 H   0  0
   -0.7270   -3.6190   -0.3110 H   0  0
   -3.1560   -1.9300    1.6090 H   0  0
   -3.0490   -2.1310   -0.1150 H   0  0
   -0.3850   -1.8570    0.8240 H   0  0
   -3.5720    0.0370    0.8300 H   0  0
    1.4840   -0.9390    0.6090 H   0  0
   -1.4750    3.8180    0.5040 H   0  0
   -4.8320    2.0660    0.7830 H   0  0
   -4.0740    3.3070   -0.2110 H   0  0
   -3.9790    3.4060    1.5450 H   0  0
    3.0530    3.1540   -1.1210 H   0  0
    0.1540    4.4900    1.7970 H   0  0
    1.0410    6.7870    1.6150 H   0  0
    2.9200    7.2890    0.0800 H   0  0
    7.0490    5.8440   -2.1560 H   0  0
    4.8260    7.4260    0.5780 H   0  0
    5.2930    5.7810    0.9840 H   0  0
    8.3170    7.6250   -1.1910 H   0  0
    6.9080    8.6470   -1.0290 H   0  0
    7.1110    7.8110    1.2190 H   0  0
    7.6020    6.2310    0.6540 H   0  0
    5.9790    7.2150   -5.2250 H   0  0
    6.6900    5.8990   -4.3890 H   0  0
  1  2  1  0
  2  3  2  0
  2  4  1  0
  3  5  1  0
  4  6  2  0
  5  7  2  0
  5  8  1  0
  7  9  1  0
  8 10  1  0
  8 11  1  0
  8 12  1  0
  9 13  1  0
 10 14  1  0
 14 15  1  0
 14 16  1  0
 14 17  1  0
 16 18  1  0
 16 19  1  0
 16 20  1  0
 17 21  1  0
 21 22  1  0
 22 23  2  0
 22 24  1  0
 23 25  1  0
 23 26  1  0
 24 27  2  0
 25 28  1  0
 25 29  2  0
 26 30  2  0
 27 31  1  0
 28 32  1  0
 32 33  2  0
 32 34  1  0
 33 35  1  0
 34 36  2  0
 35 37  1  0
 35 38  2  0
 37 39  2  0
 37 40  1  0
 40 41  1  0
 40 42  1  0
 41 43  1  0
 41 44  1  0
 42 45  1  0
 43 46  2  0
 43 47  1  0
  6  7  1  0
 27 29  1  0
 28 30  1  0
 36 38  1  0
 44 45  1  0
  3 48  1  0
  4 49  1  0
  6 50  1  0
 10 51  1  0
 10 52  1  0
 11 53  1  0
 11 54  1  0
 11 55  1  0
 12 56  1  0
 12 57  1  0
 12 58  1  0
 13 59  1  0
 13 60  1  0
 13 61  1  0
 15 62  1  0
 17 63  1  0
 17 64  1  0
 21 65  1  0
 24 66  1  0
 26 67  1  0
 29 68  1  0
 31 69  1  0
 31 70  1  0
 31 71  1  0
 33 72  1  0
 34 73  1  0
 36 74  1  0
 38 75  1  0
 41 76  1  0
 42 77  1  0
 42 78  1  0
 44 79  1  0
 44 80  1  0
 45 81  1  0
 45 82  1  0
 47 83  1  0
 47 84  1  0
M  END
> <Name>
CHEMBL1233786

> <IC50 nM>
6.3

> <Molecule_ChEMBL_ID>
CHEMBL1233786

> <Smiles>
COc1ccc(F)cc1C(C)(C)C[C@@](O)(CNc1cc(C)cc2c1cnn2-c1cccc(C(=O)N2CCC[C@@H]2C(N)=O)c1)C(F)(F)F

$$$$
CHEMBL4167905
  SciTegic08162514323D

 79 84  0  0  1  0            999 V2000
   -4.6800   -0.9260    3.5180 O   0  0
   -4.0570   -0.5900    2.5270 C   0  0
   -4.0960    0.8110    2.0860 C   0  0
   -3.2340   -1.6020    1.7640 C   0  0
   -3.1910    1.3090    1.2250 C   0  0
   -2.3300   -1.0370    0.6560 C   0  0
   -2.1130    0.4670    0.6740 C   0  0
   -3.2300    2.7640    0.8180 C   0  0
   -0.9690    1.0350    0.2130 C   0  0
   -1.8400    3.3540    1.0430 C   0  0
    0.2070    0.2110   -0.3260 C   0  0  1  0  0  0
   -0.7600    2.5510    0.2850 C   0  0  1  0  0  0
   -0.1740   -0.6760   -1.4690 C   0  0
    1.4690    1.0330   -0.7010 C   0  0
    0.5780    2.7270    1.0160 C   0  0  1  0  0  0
   -0.9260   -0.1620   -2.5410 C   0  0
    0.2210   -2.0270   -1.4730 C   0  0
    1.7380    2.3610    0.0680 C   0  0  1  0  0  0
    1.0800    4.0370    1.6270 C   0  0
   -1.2830   -0.9960   -3.6130 C   0  0
   -0.1390   -2.8610   -2.5450 C   0  0
    2.9020    2.4180    1.0980 C   0  0  2  0  0  0
    1.9380    3.4920   -0.9730 C   0  0
    2.5610    3.7010    1.9100 C   0  0
   -0.8890   -2.3480   -3.6170 C   0  0
    4.1760    2.5530    0.4810 O   0  0
    2.9180    1.2190    1.9570 C   0  0
   -1.2710   -3.2380   -4.7640 C   0  0
    2.8950    0.2420    2.6450 C   0  0
   -2.7360   -3.1390   -5.2380 C   0  0
   -1.9080   -4.5920   -4.3850 C   0  0
   -0.2070   -3.2730   -5.8560 C   0  0
    2.8320   -0.9690    3.4820 C   0  0
   -3.2270   -4.4020   -4.8500 O   0  0
    2.9920   -2.1870    2.5860 C   0  0
    1.4710   -1.0180    4.1680 C   0  0
    3.9470   -0.9280    4.5220 C   0  0
   -4.8830    1.4490    2.4750 H   0  0
   -2.6250   -2.1500    2.4820 H   0  0
   -3.9120   -2.3380    1.3280 H   0  0
   -1.3750   -1.5510    0.7380 H   0  0
   -2.7500   -1.2990   -0.3120 H   0  0
   -3.9690    3.3220    1.3980 H   0  0
   -3.5180    2.8480   -0.2340 H   0  0
   -1.6330    3.3520    2.1210 H   0  0
   -1.8090    4.3990    0.7230 H   0  0
    0.5220   -0.4630    0.4770 H   0  0
   -0.6850    2.9470   -0.7290 H   0  0
    2.3520    0.3950   -0.6480 H   0  0
    1.3910    1.2830   -1.7640 H   0  0
    0.5410    2.0310    1.8480 H   0  0
   -1.2300    0.8750   -2.5430 H   0  0
    0.7970   -2.4280   -0.6520 H   0  0
    0.5370    4.3050    2.5270 H   0  0
    0.9880    4.8750    0.9380 H   0  0
   -1.8590   -0.5960   -4.4340 H   0  0
    0.1680   -3.8960   -2.5430 H   0  0
    2.3340    4.3990   -0.5140 H   0  0
    0.9920    3.7460   -1.4510 H   0  0
    2.6330    3.1820   -1.7520 H   0  0
    3.1700    4.5430    1.6310 H   0  0
    2.7130    3.5720    2.9730 H   0  0
    4.8030    2.8070    1.1740 H   0  0
   -3.3610   -2.3710   -4.7770 H   0  0
   -2.8870   -3.0270   -6.3150 H   0  0
   -1.9510   -4.8460   -3.3220 H   0  0
   -1.4920   -5.4750   -4.8770 H   0  0
    0.7500   -3.6310   -5.4790 H   0  0
   -0.0510   -2.2770   -6.2720 H   0  0
   -0.5140   -3.9320   -6.6680 H   0  0
    3.9550   -2.1910    2.0720 H   0  0
    2.2110   -2.2130    1.8260 H   0  0
    2.9220   -3.1050    3.1660 H   0  0
    1.3130   -0.1580    4.8200 H   0  0
    1.3770   -1.9180    4.7750 H   0  0
    0.6680   -1.0270    3.4320 H   0  0
    3.8420   -0.0550    5.1660 H   0  0
    3.9340   -1.8280    5.1370 H   0  0
    4.9240   -0.8690    4.0390 H   0  0
  1  2  2  0
  2  3  1  0
  2  4  1  0
  3  5  2  0
  4  6  1  0
  5  7  1  0
  5  8  1  0
  7  9  2  0
  8 10  1  0
  9 11  1  0
  9 12  1  0
 11 13  1  0
 11 14  1  0
 12 15  1  0
 13 16  2  0
 13 17  1  0
 14 18  1  0
 15 19  1  0
 16 20  1  0
 17 21  2  0
 18 22  1  0
 18 23  1  0
 19 24  1  0
 20 25  2  0
 22 26  1  0
 22 27  1  0
 25 28  1  0
 27 29  3  0
 28 30  1  0
 28 31  1  0
 28 32  1  0
 29 33  1  0
 30 34  1  0
 33 35  1  0
 33 36  1  0
 33 37  1  0
  6  7  1  0
 12 10  1  0
 15 18  1  0
 21 25  1  0
 22 24  1  0
 31 34  1  0
  3 38  1  0
  4 39  1  0
  4 40  1  0
  6 41  1  0
  6 42  1  0
  8 43  1  0
  8 44  1  0
 10 45  1  0
 10 46  1  0
 11 47  1  0
 12 48  1  0
 14 49  1  0
 14 50  1  0
 15 51  1  0
 16 52  1  0
 17 53  1  0
 19 54  1  0
 19 55  1  0
 20 56  1  0
 21 57  1  0
 23 58  1  0
 23 59  1  0
 23 60  1  0
 24 61  1  0
 24 62  1  0
 26 63  1  0
 30 64  1  0
 30 65  1  0
 31 66  1  0
 31 67  1  0
 32 68  1  0
 32 69  1  0
 32 70  1  0
 35 71  1  0
 35 72  1  0
 35 73  1  0
 36 74  1  0
 36 75  1  0
 36 76  1  0
 37 77  1  0
 37 78  1  0
 37 79  1  0
M  END
> <Name>
CHEMBL4167905

> <IC50 nM>
9.6

> <Molecule_ChEMBL_ID>
CHEMBL4167905

> <Smiles>
CC(C)(C)C#C[C@]1(O)CC[C@H]2[C@@H]3CCC4=CC(=O)CCC4=C3[C@@H](c3ccc(C4(C)COC4)cc3)C[C@@]21C

$$$$
CHEMBL8260
  SciTegic08162514323D

 30 32  0  0  0  0            999 V2000
    0.4730   -3.1090    1.2070 O   0  0
    0.1560   -2.0220    0.7810 C   0  0
   -1.2210   -1.4900    0.5780 C   0  0
    1.2500   -1.0980    0.4140 C   0  0
   -2.3630   -2.2720    0.8910 C   0  0
   -1.3710   -0.1780    0.0610 C   0  0
    0.9840    0.1370   -0.0700 C   0  0
   -2.2320   -3.5140    1.3830 O   0  0
   -3.6560   -1.7320    0.6840 C   0  0
   -0.2830    0.5680   -0.2380 O   0  0
   -2.6660    0.3520   -0.1460 C   0  0
    2.1290    1.0310   -0.4260 C   0  0
   -4.7400   -2.4650    0.9790 O   0  0
   -3.8070   -0.4240    0.1660 C   0  0
    3.3750    0.8670    0.2070 C   0  0
    1.9610    2.0410   -1.3910 C   0  0
   -5.0310    0.0840   -0.0310 O   0  0
    4.4490    1.7090   -0.1270 C   0  0
    3.0370    2.8810   -1.7250 C   0  0
    4.2810    2.7150   -1.0920 C   0  0
    2.2700   -1.4320    0.5430 H   0  0
   -1.4140   -3.7620    1.8300 H   0  0
   -2.7830    1.3520   -0.5410 H   0  0
   -5.6170   -2.0900    0.8320 H   0  0
    3.5140    0.0960    0.9510 H   0  0
    1.0080    2.1760   -1.8830 H   0  0
   -5.1210    0.9790   -0.3850 H   0  0
    5.4060    1.5820    0.3600 H   0  0
    2.9060    3.6540   -2.4670 H   0  0
    5.1070    3.3630   -1.3480 H   0  0
  1  2  2  0
  2  3  1  0
  2  4  1  0
  3  5  2  0
  3  6  1  0
  4  7  2  0
  5  8  1  0
  5  9  1  0
  6 10  1  0
  6 11  2  0
  7 12  1  0
  9 13  1  0
  9 14  2  0
 12 15  2  0
 12 16  1  0
 14 17  1  0
 15 18  1  0
 16 19  2  0
 18 20  2  0
  7 10  1  0
 11 14  1  0
 19 20  1  0
  4 21  1  0
  8 22  1  0
 11 23  1  0
 13 24  1  0
 15 25  1  0
 16 26  1  0
 17 27  1  0
 18 28  1  0
 19 29  1  0
 20 30  1  0
M  END
> <Name>
CHEMBL8260

> <IC50 nM>
19000

> <Molecule_ChEMBL_ID>
CHEMBL8260

> <Smiles>
O=c1cc(-c2ccccc2)oc2cc(O)c(O)c(O)c12

$$$$
CHEMBL4743141
  SciTegic08162514323D

 73 76  0  0  1  0            999 V2000
   -6.5450    4.3200    0.7010 F   0  0
   -6.8600    3.1580    1.3550 C   0  0
   -7.4300    3.4550    2.5660 F   0  0
   -7.7420    2.4320    0.5990 F   0  0
   -5.5780    2.3910    1.5510 C   0  0
   -4.5330    2.8030    1.1050 O   0  0
   -5.6170    1.2150    2.2440 N   0  0
   -4.3770    0.4530    2.4430 C   0  0  2  0  0  0
   -4.1330   -0.5140    1.2830 C   0  0  2  0  0  0
   -4.3750   -0.2480    3.8030 C   0  0
   -3.9570    0.2250    0.0820 O   0  0
   -5.2620   -1.4650    1.1170 C   0  0
   -2.7270    0.4430   -0.3360 C   0  0
   -6.3610   -1.1230    0.3080 C   0  0
   -5.2340   -2.7110    1.7690 C   0  0
   -2.4630    0.5920   -1.7090 C   0  0
   -1.6720    0.5270    0.5880 C   0  0
   -7.4280   -2.0250    0.1520 C   0  0
   -6.3030   -3.6110    1.6150 C   0  0
   -1.1500    0.8220   -2.1560 C   0  0
   -0.3570    0.7580    0.1440 C   0  0
   -7.4010   -3.2700    0.8050 C   0  0
   -0.0960    0.9060   -1.2290 C   0  0
   -8.5290   -4.2230    0.6410 C   0  0
    1.2990    1.1520   -1.7030 C   0  0
    1.5080    1.7210   -2.7500 O   0  0
    2.3400    0.7250   -0.9300 N   0  0
    3.7230    0.9590   -1.3850 C   0  0  2  0  0  0
    4.7030   -0.0060   -0.6840 C   0  0
    4.1290    2.4300   -1.1680 C   0  0
    6.1090    0.3010   -1.0410 N   0  0
    5.5720    2.6620   -1.6370 C   0  0
    6.9650   -0.6890   -1.4470 C   0  0
    6.5650    1.7090   -0.9470 C   0  0
    6.5820   -1.8340   -1.5220 O   0  0
    8.3870   -0.3200   -1.7990 C   0  0  1  0  0  0
    9.2090    0.0630   -0.5610 C   0  0
    9.2050   -1.5200   -2.2760 C   0  0
    9.7310   -1.1430   -0.0060 O   0  0
    9.8070   -2.0230   -0.9960 C   0  0
   10.2910   -3.1250   -0.9020 O   0  0
   -6.4850    0.8750    2.6110 H   0  0
   -3.5430    1.1470    2.5490 H   0  0
   -3.2170   -1.0660    1.4800 H   0  0
   -4.4510    0.4800    4.6110 H   0  0
   -5.2070   -0.9470    3.8750 H   0  0
   -3.4530   -0.8090    3.9450 H   0  0
   -6.3890   -0.1680   -0.1950 H   0  0
   -4.3950   -2.9810    2.3920 H   0  0
   -3.2700    0.5270   -2.4240 H   0  0
   -1.8670    0.4140    1.6440 H   0  0
   -8.2680   -1.7560   -0.4710 H   0  0
   -6.2740   -4.5660    2.1190 H   0  0
   -0.9610    0.9360   -3.2150 H   0  0
    0.4450    0.8220    0.8650 H   0  0
   -8.4120   -5.1560    1.1930 H   0  0
   -8.6430   -4.4730   -0.4140 H   0  0
   -9.4530   -3.7520    0.9730 H   0  0
    2.1560    0.2560   -0.0670 H   0  0
    3.7420    0.7560   -2.4550 H   0  0
    4.6110    0.0760    0.4020 H   0  0
    4.4670   -1.0410   -0.9420 H   0  0
    3.4570    3.0980   -1.7110 H   0  0
    4.0490    2.6910   -0.1110 H   0  0
    5.8630    3.6950   -1.4490 H   0  0
    5.6250    2.5230   -2.7190 H   0  0
    6.6540    1.9690    0.1070 H   0  0
    7.5570    1.8200   -1.3870 H   0  0
    8.3730    0.4730   -2.5330 H   0  0
    8.6430    0.5940    0.1930 H   0  0
   10.0450    0.6880   -0.8440 H   0  0
    8.6110   -2.2790   -2.7640 H   0  0
    9.9940   -1.2170   -2.9470 H   0  0
  1  2  1  0
  2  3  1  0
  2  4  1  0
  2  5  1  0
  5  6  2  0
  5  7  1  0
  7  8  1  0
  8  9  1  0
  8 10  1  0
  9 11  1  0
  9 12  1  0
 11 13  1  0
 12 14  2  0
 12 15  1  0
 13 16  2  0
 13 17  1  0
 14 18  1  0
 15 19  2  0
 16 20  1  0
 17 21  2  0
 18 22  2  0
 20 23  2  0
 22 24  1  0
 23 25  1  0
 25 26  2  0
 25 27  1  0
 28 27  1  0
 28 29  1  0
 28 30  1  0
 29 31  1  0
 30 32  1  0
 31 33  1  0
 31 34  1  0
 33 35  2  0
 36 33  1  0
 36 37  1  0
 36 38  1  0
 37 39  1  0
 38 40  1  0
 40 41  2  0
 19 22  1  0
 21 23  1  0
 32 34  1  0
 39 40  1  0
  7 42  1  0
  8 43  1  0
  9 44  1  0
 10 45  1  0
 10 46  1  0
 10 47  1  0
 14 48  1  0
 15 49  1  0
 16 50  1  0
 17 51  1  0
 18 52  1  0
 19 53  1  0
 20 54  1  0
 21 55  1  0
 24 56  1  0
 24 57  1  0
 24 58  1  0
 27 59  1  0
 28 60  1  0
 29 61  1  0
 29 62  1  0
 30 63  1  0
 30 64  1  0
 32 65  1  0
 32 66  1  0
 34 67  1  0
 34 68  1  0
 36 69  1  0
 37 70  1  0
 37 71  1  0
 38 72  1  0
 38 73  1  0
M  END
> <Name>
CHEMBL4743141

> <IC50 nM>
79

> <Molecule_ChEMBL_ID>
CHEMBL4743141

> <Smiles>
Cc1ccc([C@@H](Oc2ccc(C(=O)N[C@H]3CCCN(C(=O)[C@H]4COC(=O)C4)C3)cc2)[C@H](C)NC(=O)C(F)(F)F)cc1

$$$$
CHEMBL3957844
  SciTegic08162514323D

 55 58  0  0  0  0            999 V2000
    0.5140   -0.6020    1.0170 S   0  0
   -0.0350   -0.3810    2.3440 O   0  0
    0.0550   -1.8340    0.4040 O   0  0
    0.0230    0.6230    0.0780 N   0  0
    2.2340   -0.6680    1.1460 C   0  0
   -1.1330    0.5080   -0.6490 C   0  0
    0.8180    1.8570    0.0040 C   0  0
    2.8420   -0.6930    2.4140 C   0  0
    3.0230   -0.6950   -0.0160 C   0  0
   -1.2600    1.1700   -1.8830 C   0  0
   -2.1970   -0.2710   -0.1600 C   0  0
    1.2540    2.3110    1.3500 C   0  0
    4.2420   -0.7480    2.5180 C   0  0
    4.4240   -0.7500    0.0920 C   0  0
   -2.4470    1.0510   -2.6270 C   0  0
   -3.3830   -0.3890   -0.9060 C   0  0
    0.2990    2.7150    2.3010 C   0  0
    2.6210    2.3340    1.6760 C   0  0
    5.0370   -0.7770    1.3570 C   0  0
   -3.5120    0.2720   -2.1410 C   0  0
    0.7110    3.1430    3.5740 C   0  0
    3.0330    2.7620    2.9490 C   0  0
    6.3500   -0.8280    1.4550 O   0  0
   -4.6230    0.1620   -2.8380 O   0  0
    2.0780    3.1660    3.8980 C   0  0
    7.1020   -0.9840    0.2620 C   0  0
   -5.2400   -1.0040   -2.8380 C   0  0
   -6.6470   -1.0590   -2.8380 C   0  0
   -4.4980   -2.1970   -2.8380 C   0  0
   -7.3050   -2.2990   -2.8380 C   0  0
   -5.1540   -3.4390   -2.8380 C   0  0
   -6.5590   -3.4900   -2.8380 C   0  0
    0.2210    2.6410   -0.4670 H   0  0
    1.6930    1.6840   -0.6230 H   0  0
    2.2340   -0.6720    3.3070 H   0  0
    2.5570   -0.6760   -0.9900 H   0  0
   -0.4530    1.7750   -2.2760 H   0  0
   -2.1190   -0.7890    0.7870 H   0  0
    4.7070   -0.7680    3.4920 H   0  0
    5.0290   -0.7710   -0.8030 H   0  0
   -2.5410    1.5610   -3.5740 H   0  0
   -4.1970   -0.9880   -0.5270 H   0  0
   -0.7540    2.6990    2.0570 H   0  0
    3.3590    2.0250    0.9510 H   0  0
   -0.0220    3.4530    4.3030 H   0  0
    4.0840    2.7790    3.1990 H   0  0
    2.3960    3.4940    4.8790 H   0  0
    8.1600   -0.9940    0.5230 H   0  0
    6.7290   -1.8610   -0.2660 H   0  0
    6.9240   -0.1130   -0.3710 H   0  0
   -7.2230   -0.1440   -2.8380 H   0  0
   -3.4180   -2.1620   -2.8380 H   0  0
   -8.3850   -2.3380   -2.8380 H   0  0
   -4.5800   -4.3540   -2.8380 H   0  0
   -7.0650   -4.4450   -2.8380 H   0  0
  1  2  2  0
  1  3  2  0
  1  4  1  0
  1  5  1  0
  4  6  1  0
  4  7  1  0
  5  8  2  0
  5  9  1  0
  6 10  2  0
  6 11  1  0
  7 12  1  0
  8 13  1  0
  9 14  2  0
 10 15  1  0
 11 16  2  0
 12 17  2  0
 12 18  1  0
 13 19  2  0
 15 20  2  0
 17 21  1  0
 18 22  2  0
 19 23  1  0
 20 24  1  0
 21 25  2  0
 23 26  1  0
 24 27  1  0
 27 28  2  0
 27 29  1  0
 28 30  1  0
 29 31  2  0
 30 32  2  0
 14 19  1  0
 16 20  1  0
 22 25  1  0
 31 32  1  0
  7 33  1  0
  7 34  1  0
  8 35  1  0
  9 36  1  0
 10 37  1  0
 11 38  1  0
 13 39  1  0
 14 40  1  0
 15 41  1  0
 16 42  1  0
 17 43  1  0
 18 44  1  0
 21 45  1  0
 22 46  1  0
 25 47  1  0
 26 48  1  0
 26 49  1  0
 26 50  1  0
 28 51  1  0
 29 52  1  0
 30 53  1  0
 31 54  1  0
 32 55  1  0
M  END
> <Name>
CHEMBL3957844

> <IC50 nM>
1870

> <Molecule_ChEMBL_ID>
CHEMBL3957844

> <Smiles>
COc1ccc(S(=O)(=O)N(Cc2ccccc2)c2ccc(Oc3ccccc3)cc2)cc1

$$$$
CHEMBL5278086
  SciTegic08162514323D

 45 48  0  0  0  0            999 V2000
    3.4670   -0.7500    0.4650 S   0  0
    3.6290   -0.0390   -0.7930 O   0  0
    3.4410    0.1310    1.6190 O   0  0
    2.0450   -1.5220    0.4080 N   0  0
    4.7890   -1.8420    0.6470 C   0  0
    0.9080   -0.8240    0.2720 C   0  0
    5.7730   -1.9260   -0.3550 C   0  0
    4.8830   -2.6470    1.7950 C   0  0
   -0.3420   -1.4860    0.2210 C   0  0
    0.9410    0.5860    0.1720 C   0  0
    6.8500   -2.8160   -0.2070 C   0  0
    5.9590   -3.5370    1.9410 C   0  0
   -1.5490   -0.7580    0.0760 C   0  0
   -0.2560    1.3240    0.0290 C   0  0
    6.9450   -3.6230    0.9410 C   0  0
   -1.5240    0.6700   -0.0210 C   0  0
   -2.8320   -1.5100    0.0250 C   0  0
    7.9650   -4.4650    1.0800 F   0  0
   -2.6880    1.3850   -0.1600 N   0  0
   -4.0140   -0.6480    0.4840 C   0  0
   -2.6970    2.7560   -0.2360 C   0  0
   -4.0120    0.7010   -0.2400 C   0  0
   -1.8220    3.4040    0.2890 O   0  0
   -3.7700    3.4280   -0.9570 C   0  0
   -4.3670    2.7580   -1.9800 O   0  0
   -4.2950    4.7050   -0.7480 C   0  0
   -5.3050    3.6430   -2.4340 C   0  0
   -5.2950    4.8440   -1.7110 C   0  0
    2.0140   -2.5180    0.4770 H   0  0
    5.7010   -1.3070   -1.2380 H   0  0
    4.1270   -2.5840    2.5650 H   0  0
   -0.3830   -2.5660    0.2930 H   0  0
    1.8810    1.1190    0.2070 H   0  0
    7.6060   -2.8770   -0.9780 H   0  0
    6.0270   -4.1560    2.8240 H   0  0
   -0.1700    2.3980   -0.0410 H   0  0
   -2.9940   -1.8420   -1.0000 H   0  0
   -2.7790   -2.4080    0.6430 H   0  0
   -3.9530   -0.4860    1.5630 H   0  0
   -4.9510   -1.1720    0.3050 H   0  0
   -4.2640    0.5590   -1.2930 H   0  0
   -4.7910    1.3400    0.1820 H   0  0
   -3.9940    5.4300   -0.0040 H   0  0
   -5.9710    3.4280   -3.2580 H   0  0
   -5.9340    5.7010   -1.8670 H   0  0
  1  2  2  0
  1  3  2  0
  1  4  1  0
  1  5  1  0
  4  6  1  0
  5  7  2  0
  5  8  1  0
  6  9  2  0
  6 10  1  0
  7 11  1  0
  8 12  2  0
  9 13  1  0
 10 14  2  0
 11 15  2  0
 13 16  2  0
 13 17  1  0
 15 18  1  0
 16 19  1  0
 17 20  1  0
 19 21  1  0
 19 22  1  0
 21 23  2  0
 21 24  1  0
 24 25  1  0
 24 26  2  0
 25 27  1  0
 26 28  1  0
 12 15  1  0
 14 16  1  0
 20 22  1  0
 27 28  2  0
  4 29  1  0
  7 30  1  0
  8 31  1  0
  9 32  1  0
 10 33  1  0
 11 34  1  0
 12 35  1  0
 14 36  1  0
 17 37  1  0
 17 38  1  0
 20 39  1  0
 20 40  1  0
 22 41  1  0
 22 42  1  0
 26 43  1  0
 27 44  1  0
 28 45  1  0
M  END
> <Name>
CHEMBL5278086

> <IC50 nM>
10000

> <Molecule_ChEMBL_ID>
CHEMBL5278086

> <Smiles>
O=C(c1ccco1)N1CCCc2cc(NS(=O)(=O)c3ccc(F)cc3)ccc21

$$$$
CHEMBL3906238
  SciTegic08162514323D

 65 68  0  0  1  0            999 V2000
   -4.2990   -0.9590   -0.0390 S   0  0
   -5.2750   -0.1050    0.6150 O   0  0
   -4.6450   -1.2770   -1.4140 O   0  0
   -2.8280   -0.0310   -0.1170 N   0  0
   -4.1500   -2.4820    0.8870 C   0  0
   -1.6230   -0.7010   -0.5760 C   0  0  2  0  0  0
   -5.4860   -3.2290    0.9080 C   0  0
   -0.4550    0.2830   -0.6420 C   0  0  2  0  0  0
   -1.8770   -1.4060   -1.9100 C   0  0
   -5.4160   -4.5410    1.6880 C   0  0
    0.6930   -0.3790   -1.1500 O   0  0
   -0.1480    0.8590    0.6920 C   0  0
   -6.7500   -5.2870    1.7070 C   0  0
    1.8300    0.3240   -1.2520 C   0  0
   -0.5200    2.1820    0.9900 C   0  0
    0.5140    0.0800    1.6580 C   0  0
   -6.6800   -6.6000    2.4860 C   0  0
    3.0800   -0.3520   -1.2810 C   0  0
    1.7810    1.7420   -1.3280 C   0  0
   -0.2290    2.7270    2.2540 C   0  0
    0.8050    0.6250    2.9220 C   0  0
    4.2750    0.4040   -1.3890 C   0  0
    2.9790    2.4920   -1.4350 C   0  0
    0.4340    1.9470    3.2190 C   0  0
    4.2010    1.7810   -1.4630 C   0  0
    5.5290   -0.1850   -1.4240 C   0  0
    5.5080    2.1370   -1.5530 N   0  0
    6.2580    0.9810   -1.5290 N   0  0
    6.0060    3.3970   -1.6500 C   0  0
    7.0570    3.6740   -2.5470 C   0  0
    5.4750    4.4300   -0.8530 C   0  0
    7.5700    4.9790   -2.6460 C   0  0
    5.9900    5.7330   -0.9550 C   0  0
    7.0390    6.0080   -1.8520 C   0  0
    7.5260    7.2440   -1.9470 F   0  0
   -2.6350    0.3830    0.8050 H   0  0
   -3.3710   -3.1020    0.4430 H   0  0
   -3.8160   -2.2620    1.9010 H   0  0
   -1.4690   -1.4280    0.2210 H   0  0
   -6.2770   -2.5900    1.2990 H   0  0
   -5.8460   -3.4000   -0.1070 H   0  0
   -0.7190    1.0860   -1.3320 H   0  0
   -2.5700   -2.2400   -1.8030 H   0  0
   -0.9470   -1.7970   -2.3220 H   0  0
   -2.3010   -0.7130   -2.6370 H   0  0
   -4.6230   -5.1800    1.2950 H   0  0
   -5.0550   -4.3690    2.7010 H   0  0
   -7.5430   -4.6480    2.1000 H   0  0
   -7.1110   -5.4590    0.6930 H   0  0
   -1.0290    2.7850    0.2540 H   0  0
    0.8010   -0.9360    1.4360 H   0  0
   -7.6490   -7.1000    2.4900 H   0  0
   -5.9380   -7.2680    2.0510 H   0  0
   -6.3970   -6.4180    3.5240 H   0  0
    3.1060   -1.4320   -1.2230 H   0  0
    0.8300    2.2520   -1.3070 H   0  0
   -0.5140    3.7420    2.4830 H   0  0
    1.3130    0.0270    3.6640 H   0  0
    2.9550    3.5700   -1.4960 H   0  0
    0.6560    2.3650    4.1900 H   0  0
    5.8810   -1.2090   -1.3870 H   0  0
    7.4790    2.8970   -3.1680 H   0  0
    4.6680    4.2380   -0.1600 H   0  0
    8.3750    5.1860   -3.3380 H   0  0
    5.5780    6.5220   -0.3440 H   0  0
  1  2  2  0
  1  3  2  0
  1  4  1  0
  1  5  1  0
  4  6  1  0
  5  7  1  0
  6  8  1  0
  6  9  1  0
  7 10  1  0
  8 11  1  0
  8 12  1  0
 10 13  1  0
 11 14  1  0
 12 15  2  0
 12 16  1  0
 13 17  1  0
 14 18  2  0
 14 19  1  0
 15 20  1  0
 16 21  2  0
 18 22  1  0
 19 23  2  0
 20 24  2  0
 22 25  2  0
 22 26  1  0
 25 27  1  0
 26 28  2  0
 27 29  1  0
 29 30  2  0
 29 31  1  0
 30 32  1  0
 31 33  2  0
 32 34  2  0
 34 35  1  0
 21 24  1  0
 23 25  1  0
 27 28  1  0
 33 34  1  0
  4 36  1  0
  5 37  1  0
  5 38  1  0
  6 39  1  0
  7 40  1  0
  7 41  1  0
  8 42  1  0
  9 43  1  0
  9 44  1  0
  9 45  1  0
 10 46  1  0
 10 47  1  0
 13 48  1  0
 13 49  1  0
 15 50  1  0
 16 51  1  0
 17 52  1  0
 17 53  1  0
 17 54  1  0
 18 55  1  0
 19 56  1  0
 20 57  1  0
 21 58  1  0
 23 59  1  0
 24 60  1  0
 26 61  1  0
 30 62  1  0
 31 63  1  0
 32 64  1  0
 33 65  1  0
M  END
> <Name>
CHEMBL3906238

> <IC50 nM>
100

> <Molecule_ChEMBL_ID>
CHEMBL3906238

> <Smiles>
CCCCCS(=O)(=O)N[C@@H](C)[C@H](Oc1ccc2c(cnn2-c2ccc(F)cc2)c1)c1ccccc1

$$$$
CHEMBL5396710
  SciTegic08162514323D

 71 76  0  0  1  0            999 V2000
   -7.1450   -0.6930   -1.2930 O   0  0
   -6.1740   -0.4770   -0.6040 C   0  0
   -5.3730   -1.5820   -0.0660 C   0  0
   -5.7700    0.8960   -0.2890 C   0  0
   -4.3070   -1.3540    0.7290 C   0  0
   -4.7150    1.1480    0.5120 C   0  0
   -3.8650    0.0510    1.1450 C   0  0  2  0  0  0
   -3.4770   -2.5080    1.2520 C   0  0
   -2.3560    0.2230    0.7730 C   0  0  1  0  0  0
   -4.0960    0.1390    2.6580 C   0  0
   -1.9900   -2.3030    0.9430 C   0  0
   -1.7520    1.6390    1.0290 C   0  0  1  0  0  0
   -1.4860   -0.9140    1.3810 C   0  0  1  0  0  0
   -1.9610    2.0490    2.3670 O   0  0
   -0.2420    1.7320    0.7010 C   0  0
   -0.0390   -0.7320    0.8950 C   0  0  1  0  0  0
    0.5740    0.6000    1.3540 C   0  0  1  0  0  0
    0.9920   -1.7480    1.3890 C   0  0
    2.0510    0.4370    0.9200 C   0  0  1  0  0  0
    0.5530    0.6950    2.8890 C   0  0
    2.3280   -1.0740    1.0470 C   0  0  2  0  0  0
    2.2170    0.6450   -0.4730 O   0  0
    3.0490    1.3160    1.6470 C   0  0
    2.7360   -1.4530   -0.2560 O   0  0
    3.1040   -0.3140   -0.9940 C   0  0  1  0  0  0
    3.9340    0.8320    2.3130 O   0  0
    2.9060    2.8090    1.5140 C   0  0
    2.8540   -0.5310   -2.4820 C   0  0
    4.1860    3.4000    1.4790 O   0  0
    3.7440   -1.6680   -3.0020 C   0  0
    3.1410    0.7660   -3.2540 C   0  0
    3.6190   -1.8200   -4.5270 C   0  0
    3.0330    0.5410   -4.7740 C   0  0
    3.9020   -0.5550   -5.2150 N   0  0
   -5.6490   -2.5960   -0.3200 H   0  0
   -6.3280    1.7230   -0.7050 H   0  0
   -4.4710    2.1820    0.7090 H   0  0
   -3.6210   -2.5880    2.3300 H   0  0
   -3.8130   -3.4530    0.8240 H   0  0
   -2.2970    0.0940   -0.3110 H   0  0
   -5.0530   -0.2970    2.9490 H   0  0
   -4.0880    1.1780    2.9900 H   0  0
   -3.3110   -0.3890    3.1990 H   0  0
   -1.4140   -3.0880    1.4360 H   0  0
   -1.8280   -2.4320   -0.1290 H   0  0
   -2.2680    2.3710    0.4080 H   0  0
   -1.5250   -0.8590    2.4690 H   0  0
   -1.7360    2.9900    2.4160 H   0  0
   -0.1390    1.6820   -0.3830 H   0  0
    0.1580    2.7050    0.9880 H   0  0
   -0.0470   -0.7660   -0.1890 H   0  0
    0.9040   -1.8930    2.4550 H   0  0
    0.8710   -2.7190    0.9260 H   0  0
   -0.4430    0.4780    3.2750 H   0  0
    1.2660   -0.0020    3.3280 H   0  0
    0.8240    1.6990    3.2170 H   0  0
    3.1110   -1.3160    1.7520 H   0  0
    4.1230   -0.0370   -0.7620 H   0  0
    2.3690    3.2070    2.3730 H   0  0
    2.3960    3.0490    0.5800 H   0  0
    1.8090   -0.8050   -2.6310 H   0  0
    4.0550    4.3570    1.3930 H   0  0
    3.4790   -2.6070   -2.5140 H   0  0
    4.7850   -1.4670   -2.7440 H   0  0
    2.4470    1.5490   -2.9450 H   0  0
    4.1430    1.1230   -3.0140 H   0  0
    4.3090   -2.5840   -4.8870 H   0  0
    2.6150   -2.1520   -4.7910 H   0  0
    2.0020    0.3120   -5.0470 H   0  0
    3.3050    1.4530   -5.3070 H   0  0
    4.8870   -0.2930   -5.0450 H   0  0
  1  2  2  0
  2  3  1  0
  2  4  1  0
  3  5  2  0
  4  6  2  0
  5  7  1  0
  5  8  1  0
  7  9  1  0
  7 10  1  0
  8 11  1  0
  9 12  1  0
  9 13  1  0
 12 14  1  0
 12 15  1  0
 13 16  1  0
 15 17  1  0
 16 18  1  0
 17 19  1  0
 17 20  1  0
 18 21  1  0
 19 22  1  0
 19 23  1  0
 21 24  1  0
 22 25  1  0
 23 26  2  0
 23 27  1  0
 25 28  1  0
 27 29  1  0
 28 30  1  0
 28 31  1  0
 30 32  1  0
 31 33  1  0
 32 34  1  0
  6  7  1  0
 13 11  1  0
 16 17  1  0
 19 21  1  0
 24 25  1  0
 33 34  1  0
  3 35  1  0
  4 36  1  0
  6 37  1  0
  8 38  1  0
  8 39  1  0
  9 40  1  0
 10 41  1  0
 10 42  1  0
 10 43  1  0
 11 44  1  0
 11 45  1  0
 12 46  1  0
 13 47  1  0
 14 48  1  0
 15 49  1  0
 15 50  1  0
 16 51  1  0
 18 52  1  0
 18 53  1  0
 20 54  1  0
 20 55  1  0
 20 56  1  0
 21 57  1  0
 25 58  1  0
 27 59  1  0
 27 60  1  0
 28 61  1  0
 29 62  1  0
 30 63  1  0
 30 64  1  0
 31 65  1  0
 31 66  1  0
 32 67  1  0
 32 68  1  0
 33 69  1  0
 33 70  1  0
 34 71  1  0
M  END
> <Name>
CHEMBL5396710

> <IC50 nM>
911

> <Molecule_ChEMBL_ID>
CHEMBL5396710

> <Smiles>
C[C@]12C=CC(=O)C=C1CC[C@@H]1[C@@H]2[C@@H](O)C[C@@]2(C)[C@H]1C[C@H]1O[C@@H](C3CCNCC3)O[C@]12C(=O)CO

$$$$
CHEMBL228274
  SciTegic08162514323D

 48 50  0  0  1  0            999 V2000
   -4.5160   -2.0680   -0.3280 O   0  0
   -3.1990   -2.0270   -0.3280 C   0  0
   -5.2230   -0.8360   -0.3280 C   0  0
   -2.4510   -3.2190   -0.3280 C   0  0
   -2.5370   -0.7850   -0.3280 C   0  0
   -3.0630   -4.3870   -0.3280 O   0  0
   -1.0450   -3.1640   -0.3280 C   0  0
   -1.1310   -0.7330   -0.3280 C   0  0
   -0.3870   -1.9240   -0.3280 C   0  0
   -0.4300    0.5940   -0.3280 C   0  0  1  0  0  0
    0.9790    0.5800   -0.9770 C   0  0  2  0  0  0
   -0.8500    1.5430   -1.4810 C   0  0  2  0  0  0
    2.1210    0.5660    0.0020 C   0  0
    0.6330    1.9840   -1.5370 C   0  0  2  0  0  0
   -1.8240    2.6430   -1.0760 C   0  0
    1.9490   -0.0120    1.2730 C   0  0
    3.3590    1.1270   -0.3500 C   0  0
    1.1600    2.2560   -2.9420 C   0  0
    3.0140   -0.0270    2.1910 C   0  0
    4.4240    1.1110    0.5660 C   0  0
    2.8460   -0.5700    3.3810 O   0  0
    4.2540    0.5350    1.8380 C   0  0
    1.5470   -1.0270    3.7280 C   0  0
    5.2580    0.5230    2.6930 O   0  0
   -6.3110   -0.8970   -0.3280 H   0  0
   -4.9200   -0.2700   -1.2090 H   0  0
   -4.9200   -0.2700    0.5530 H   0  0
   -3.1110    0.1290   -0.3280 H   0  0
   -2.5350   -5.1970   -0.3280 H   0  0
   -0.4690   -4.0780   -0.3280 H   0  0
    0.6930   -1.8910   -0.3280 H   0  0
   -0.4670    1.0700    0.6540 H   0  0
    1.1070   -0.1740   -1.7580 H   0  0
   -1.1780    1.0270   -2.3870 H   0  0
    0.8610    2.8070   -0.8560 H   0  0
   -1.9020    3.4180   -1.8400 H   0  0
   -1.5020    3.1190   -0.1490 H   0  0
   -2.8200    2.2340   -0.9120 H   0  0
    0.9980   -0.4430    1.5470 H   0  0
    3.4980    1.5720   -1.3260 H   0  0
    2.2380    2.4180   -2.9470 H   0  0
    0.6880    3.1430   -3.3650 H   0  0
    0.9450    1.4180   -3.6040 H   0  0
    5.3750    1.5430    0.2930 H   0  0
    1.5960   -1.4670    4.7250 H   0  0
    0.8480   -0.2010    3.6000 H   0  0
    1.2660   -1.8170    3.0310 H   0  0
    5.1310    0.1250    3.5640 H   0  0
  1  2  1  0
  1  3  1  0
  2  4  2  0
  2  5  1  0
  4  6  1  0
  4  7  1  0
  5  8  2  0
  7  9  2  0
 10  8  1  0
 10 11  1  0
 10 12  1  0
 11 13  1  0
 11 14  1  0
 12 15  1  0
 13 16  2  0
 13 17  1  0
 14 18  1  0
 16 19  1  0
 17 20  2  0
 19 21  1  0
 19 22  2  0
 21 23  1  0
 22 24  1  0
  8  9  1  0
 12 14  1  0
 20 22  1  0
  3 25  1  0
  3 26  1  0
  3 27  1  0
  5 28  1  0
  6 29  1  0
  7 30  1  0
  9 31  1  0
 10 32  1  0
 11 33  1  0
 12 34  1  0
 14 35  1  0
 15 36  1  0
 15 37  1  0
 15 38  1  0
 16 39  1  0
 17 40  1  0
 18 41  1  0
 18 42  1  0
 18 43  1  0
 20 44  1  0
 23 45  1  0
 23 46  1  0
 23 47  1  0
 24 48  1  0
M  END
> <Name>
CHEMBL228274

> <IC50 nM>
900

> <Molecule_ChEMBL_ID>
CHEMBL228274

> <Smiles>
COc1cc([C@@H]2[C@@H](C)[C@H](C)[C@H]2c2ccc(O)c(OC)c2)ccc1O

$$$$
CHEMBL1082407
  SciTegic08162514323D

 48 50  0  0  0  0            999 V2000
   -1.3260    1.4670    0.4360 S   0  0
   -0.9300   -0.1500    0.1890 C   0  0
   -1.8380   -1.1850   -0.0330 N   0  0
    0.3650   -0.6780    0.1780 N   0  0
   -3.1990   -1.0310   -0.0860 C   0  0
   -1.1490   -2.4000   -0.1950 C   0  0
    1.5000    0.0670    0.3650 C   0  0
    0.3400   -2.1250   -0.0640 C   0  0
   -3.7460    0.1230   -0.6760 C   0  0
   -4.0530   -2.0230    0.4470 C   0  0
   -1.6740   -3.4730   -0.4040 O   0  0
    1.6910    0.7680    1.5720 C   0  0
    2.4770    0.1330   -0.6450 C   0  0
    1.0570   -2.4920   -1.3610 C   0  0
    0.9160   -2.9040    1.1130 C   0  0
   -5.1430    0.2930   -0.7360 C   0  0
   -5.4400   -1.8570    0.3890 C   0  0
    2.8550    1.5310    1.7680 C   0  0
    3.6410    0.8970   -0.4510 C   0  0
   -5.9900   -0.7090   -0.1970 C   0  0
   -5.6920    1.5280   -1.3670 C   0  0
    3.0230    2.1880    2.9140 F   0  0
    3.8320    1.5960    0.7540 C   0  0
   -7.4140   -0.5350   -0.2600 C   0  0
   -6.4420    2.2150   -0.4490 F   0  0
   -6.4810    1.1820   -2.4360 F   0  0
   -4.6580    2.3190   -1.7990 F   0  0
    5.0740    2.4040    0.9470 C   0  0
   -8.5690   -0.3960   -0.3110 N   0  0
    5.5230    2.6000    2.0530 O   0  0
    5.6990    2.9220   -0.1500 N   0  0
    6.9220    3.7210    0.0230 C   0  0
   -3.1020    0.8990   -1.0940 H   0  0
   -3.6390   -2.9020    0.8960 H   0  0
    0.9490    0.7250    2.3570 H   0  0
    2.3480   -0.3980   -1.5780 H   0  0
    0.7830   -1.8260   -2.1800 H   0  0
    0.8120   -3.5100   -1.6620 H   0  0
    2.1390   -2.4320   -1.2320 H   0  0
    0.4040   -2.6680    2.0450 H   0  0
    1.9750   -2.6740    1.2460 H   0  0
    0.8280   -3.9760    0.9450 H   0  0
   -6.0740   -2.6190    0.7990 H   0  0
    4.3850    0.9420   -1.2320 H   0  0
    5.3260    2.7600   -1.0640 H   0  0
    7.3050    4.0080   -0.9570 H   0  0
    6.7070    4.5690    0.6740 H   0  0
    7.6820    3.1100    0.5100 H   0  0
  1  2  2  0
  2  3  1  0
  2  4  1  0
  3  5  1  0
  3  6  1  0
  4  7  1  0
  4  8  1  0
  5  9  2  0
  5 10  1  0
  6 11  2  0
  7 12  2  0
  7 13  1  0
  8 14  1  0
  8 15  1  0
  9 16  1  0
 10 17  2  0
 12 18  1  0
 13 19  2  0
 16 20  2  0
 16 21  1  0
 18 22  1  0
 18 23  2  0
 20 24  1  0
 21 25  1  0
 21 26  1  0
 21 27  1  0
 23 28  1  0
 24 29  3  0
 28 30  2  0
 28 31  1  0
 31 32  1  0
  6  8  1  0
 17 20  1  0
 19 23  1  0
  9 33  1  0
 10 34  1  0
 12 35  1  0
 13 36  1  0
 14 37  1  0
 14 38  1  0
 14 39  1  0
 15 40  1  0
 15 41  1  0
 15 42  1  0
 17 43  1  0
 19 44  1  0
 31 45  1  0
 32 46  1  0
 32 47  1  0
 32 48  1  0
M  END
> <Name>
CHEMBL1082407

> <IC50 nM>
10000

> <Molecule_ChEMBL_ID>
CHEMBL1082407

> <Smiles>
CNC(=O)c1ccc(N2C(=S)N(c3ccc(C#N)c(C(F)(F)F)c3)C(=O)C2(C)C)cc1F

$$$$
CHEMBL3623004
  SciTegic08162514323D

 57 60  0  0  1  0            999 V2000
    0.7620   -0.0610   -1.4390 F   0  0
    0.1000    1.0060   -0.9940 C   0  0
   -0.3980    1.0410    0.3220 C   0  0
   -0.1030    2.1010   -1.8520 C   0  0
   -1.0980    2.1740    0.7770 C   0  0
   -0.1820   -0.1210    1.2340 C   0  0  1  0  0  0
   -0.8050    3.2320   -1.3980 C   0  0
   -1.5720    2.2230    2.0220 F   0  0
   -1.3030    3.2670   -0.0840 C   0  0
   -0.9390   -1.3170    0.7750 N   0  0
    1.3110   -0.4220    1.3420 C   0  0
   -1.0210    4.3940   -2.3110 C   0  0
   -0.4960   -2.6190    1.3360 C   0  0  1  0  0  0
   -2.3870   -1.1450    0.8790 C   0  0
    2.3710    0.4880    1.5740 N   0  0
    1.8520   -1.7070    1.2270 C   0  0
   -0.5370    4.3300   -3.5610 C   0  0
    0.9840   -2.9280    0.9860 C   0  0
   -0.7320   -2.6550    2.8560 C   0  0
   -3.0410   -1.2810   -0.4960 C   0  0
    3.5430   -0.2560    1.5800 C   0  0
    3.1880   -1.5690    1.3710 C   0  0
   -0.7250    5.4490   -4.4940 C   0  0
   -2.5210   -0.1600   -1.0920 F   0  0
   -2.5720   -2.5240   -1.2520 C   0  0
   -4.5640   -1.1680   -0.4390 C   0  0
    4.8950    0.1210    1.7500 C   0  0
    4.1560   -2.5980    1.3260 C   0  0
   -1.3200    6.4410   -4.1460 O   0  0
   -0.2050    5.2830   -5.7070 O   0  0
    5.8910   -0.8890    1.7030 C   0  0
    5.5220   -2.2460    1.4940 C   0  0
    0.2810    2.0700   -2.8610 H   0  0
   -0.5250    0.1560    2.2330 H   0  0
   -1.8420    4.1350    0.2700 H   0  0
   -1.5430    5.3070   -2.0620 H   0  0
   -1.1050   -3.4080    0.8930 H   0  0
   -2.6070   -0.1700    1.3150 H   0  0
   -2.7910   -1.8810    1.5720 H   0  0
    2.2910    1.4710    1.7070 H   0  0
    0.0060    3.4840   -3.9570 H   0  0
    1.0760   -3.2090   -0.0620 H   0  0
    1.3540   -3.7720    1.5720 H   0  0
   -1.7790   -2.4610    3.0860 H   0  0
   -0.4490   -3.6230    3.2680 H   0  0
   -0.1350   -1.8910    3.3560 H   0  0
   -1.4860   -2.6250   -1.2320 H   0  0
   -2.8830   -2.4830   -2.2970 H   0  0
   -2.9980   -3.4260   -0.8140 H   0  0
   -4.8850   -0.2720    0.0940 H   0  0
   -4.9980   -2.0290    0.0680 H   0  0
   -4.9860   -1.1250   -1.4430 H   0  0
    5.1660    1.1540    1.9100 H   0  0
    3.8730   -3.6310    1.1700 H   0  0
   -0.2990    5.9860   -6.3610 H   0  0
    6.9320   -0.6270    1.8280 H   0  0
    6.2810   -3.0140    1.4590 H   0  0
  1  2  1  0
  2  3  2  0
  2  4  1  0
  3  5  1  0
  6  3  1  0
  4  7  2  0
  5  8  1  0
  5  9  2  0
  6 10  1  0
  6 11  1  0
  7 12  1  0
 10 13  1  0
 10 14  1  0
 11 15  1  0
 11 16  2  0
 12 17  2  0
 13 18  1  0
 13 19  1  0
 14 20  1  0
 15 21  1  0
 16 22  1  0
 17 23  1  0
 20 24  1  0
 20 25  1  0
 20 26  1  0
 21 27  1  0
 22 28  1  0
 23 29  2  0
 23 30  1  0
 27 31  2  0
 28 32  2  0
  7  9  1  0
 16 18  1  0
 21 22  2  0
 31 32  1  0
  4 33  1  0
  6 34  1  0
  9 35  1  0
 12 36  1  0
 13 37  1  0
 14 38  1  0
 14 39  1  0
 15 40  1  0
 17 41  1  0
 18 42  1  0
 18 43  1  0
 19 44  1  0
 19 45  1  0
 19 46  1  0
 25 47  1  0
 25 48  1  0
 25 49  1  0
 26 50  1  0
 26 51  1  0
 26 52  1  0
 27 53  1  0
 28 54  1  0
 30 55  1  0
 31 56  1  0
 32 57  1  0
M  END
> <Name>
CHEMBL3623004

> <IC50 nM>
9200

> <Molecule_ChEMBL_ID>
CHEMBL3623004

> <Smiles>
C[C@@H]1Cc2c([nH]c3ccccc23)[C@@H](c2c(F)cc(/C=C/C(=O)O)cc2F)N1CC(C)(C)F

$$$$
